Materials Studio SDF calculation
TCVAMP81A 

 66  0  0  0  0  0              1 V2000
    1.1192    0.4983    0.0000 C   0  0
   -0.0949    2.6574    0.0000 C   0  0
    3.5930    0.4915    0.0000 C   0  0
    2.3808    2.6277    0.0000 C   0  0
    4.8282    2.6043    0.0000 C   0  0
   -0.1066    1.2231    0.0000 C   0  0
    2.3673    1.2070    0.0000 C   0  0
    1.1541    3.3542    0.0000 C   0  0
    4.8390    1.2031    0.0000 C   0  0
    3.6308    3.3322    0.0000 C   0  0
   -3.8196    0.5503    0.0000 C   0  0
   -5.0184    2.6808    0.0000 C   0  0
   -1.3458    0.5214    0.0000 C   0  0
   -2.5748    2.6811    0.0000 C   0  0
   -5.0528    1.2651    0.0000 C   0  0
   -2.5780    1.2577    0.0000 C   0  0
   -3.8228    3.3613    0.0000 C   0  0
   -1.3141    3.3924    0.0000 C   0  0
   -1.2485    4.8091    0.0000 C   0  0
    1.1817    4.7796    0.0000 C   0  0
    3.6182    4.7639    0.0000 C   0  0
   -0.0446    5.4815    0.0000 C   0  0
    2.4402    5.4589    0.0000 C   0  0
    2.4404    6.5506    0.0000 H   0  0
   -0.1312   -1.6290    0.0000 C   0  0
    2.3492   -1.6493    0.0000 C   0  0
   -1.3570   -0.9042    0.0000 C   0  0
    1.1094   -0.9253    0.0000 C   0  0
    3.5872   -0.9345    0.0000 C   0  0
   -5.0834   -1.5665    0.0000 C   0  0
   -2.6087   -1.6122    0.0000 C   0  0
   -6.2986   -0.8227    0.0000 C   0  0
   -3.8340   -0.8775    0.0000 C   0  0
   -6.2841    0.5477    0.0000 C   0  0
    1.0921   -3.7926    0.0000 C   0  0
    3.6035   -3.7405    0.0000 C   0  0
   -0.1414   -3.0651    0.0000 C   0  0
    2.3557   -3.0713    0.0000 C   0  0
    4.8001   -3.0513    0.0000 C   0  0
   -3.8953   -3.6861    0.0000 C   0  0
   -1.3855   -3.7733    0.0000 C   0  0
   -5.0780   -2.9814    0.0000 C   0  0
   -2.6354   -3.0318    0.0000 C   0  0
    4.8262   -1.6406    0.0000 C   0  0
   -0.1633   -5.8819    0.0000 C   0  0
    6.0543   -0.9080    0.0000 C   0  0
    1.0484   -5.1978    0.0000 C   0  0
    6.0619    0.4592    0.0000 C   0  0
   -1.3635   -5.1808    0.0000 C   0  0
    4.5750    5.2899    0.0000 H   0  0
    3.6361   -4.8283    0.0000 H   0  0
    5.7792    3.1423    0.0000 H   0  0
    1.9707   -5.7757    0.0000 H   0  0
    5.7461   -3.5964    0.0000 H   0  0
    7.0055    1.0082    0.0000 H   0  0
    6.9924   -1.4663    0.0000 H   0  0
   -0.1710   -6.9725    0.0000 H   0  0
   -2.2951   -5.7428    0.0000 H   0  0
   -3.9414   -4.7733    0.0000 H   0  0
   -0.0280    6.5730    0.0000 H   0  0
   -2.1663    5.3937    0.0000 H   0  0
   -3.8457    4.4492    0.0000 H   0  0
   -5.9626    3.2288    0.0000 H   0  0
   -6.0328   -3.5110    0.0000 H   0  0
   -7.2180    1.1128    0.0000 H   0  0
   -7.2447   -1.3675    0.0000 H   0  0
M  END

> <TOTAL ENERGY>
BIOVIA, TYPE=DOUBLE, VERSION=1                                                  
 -1838.55814000

> <BINDING ENERGY>
BIOVIA, TYPE=DOUBLE, VERSION=1                                                  
   -15.52285039

> <HIRSHFELD CHARGE>
BIOVIA, TYPE=DOUBLE, ATOMISTIC, VERSION=1                                       
  1    -0.00155282
  2    -0.00027250
  3     0.00005034
  4     0.00020121
  5    -0.04469888
  6    -0.00227580
  7    -0.00127833
  8     0.00099266
  9    -0.00123254
 10    -0.00126192
 11     0.00125382
 12    -0.04334672
 13    -0.00228804
 14    -0.00001760
 15    -0.00038830
 16    -0.00076467
 17    -0.04442836
 18    -0.00037630
 19    -0.04470389
 20    -0.00077247
 21    -0.04331021
 22    -0.04356921
 23    -0.04342550
 24     0.04617772
 25    -0.00315576
 26    -0.00065150
 27    -0.00228639
 28    -0.00230768
 29     0.00118628
 30    -0.00020942
 31    -0.00107141
 32    -0.04346897
 33     0.00147931
 34    -0.04338746
 35     0.00130366
 36    -0.04410364
 37     0.00036846
 38     0.00014629
 39    -0.04343163
 40    -0.04404342
 41     0.00120735
 42    -0.04332165
 43     0.00003996
 44    -0.00066693
 45    -0.04335737
 46    -0.04326991
 47    -0.04376655
 48    -0.04312125
 49    -0.04389777
 50     0.04606284
 51     0.04323143
 52     0.04309941
 53     0.04273673
 54     0.04572725
 55     0.04625992
 56     0.04619572
 57     0.04797488
 58     0.04263040
 59     0.04335113
 60     0.04577576
 61     0.04305069
 62     0.04331248
 63     0.04583359
 64     0.04580141
 65     0.04615797
 66     0.04610102

> <HOMO ENERGY>
BIOVIA, TYPE=DOUBLE, VERSION=1                                                  
    -0.16910969

> <LUMO ENERGY>
BIOVIA, TYPE=DOUBLE, VERSION=1                                                  
    -0.10535530

> <LUMO-HOMO ENERGY>
BIOVIA, TYPE=DOUBLE, VERSION=1                                                  
     0.06375439

> <MULLIKEN CHARGE>
BIOVIA, TYPE=DOUBLE, ATOMISTIC, VERSION=1                                       
  1     0.00566097
  2     0.01328655
  3     0.02264829
  4     0.02199132
  5    -0.16358398
  6     0.00842017
  7     0.02613973
  8     0.03123607
  9     0.07883051
 10     0.07839722
 11     0.03467055
 12    -0.12210972
 13     0.00758266
 14     0.03983419
 15     0.07680324
 16     0.01707255
 17    -0.12417827
 18     0.04234792
 19    -0.12743586
 20     0.07288863
 21    -0.11610939
 22    -0.12143824
 23    -0.11652731
 24     0.06095379
 25     0.00951527
 26     0.01748439
 27     0.00583453
 28     0.00690914
 29     0.03054142
 30     0.07662186
 31     0.01970071
 32    -0.11671150
 33     0.03403939
 34    -0.11760639
 35     0.05908015
 36    -0.12419238
 37     0.00846706
 38     0.04462681
 39    -0.12451837
 40    -0.12338689
 41     0.05956697
 42    -0.12203138
 43     0.04382335
 44     0.07561159
 45    -0.08821807
 46    -0.11558307
 47    -0.13123964
 48    -0.11534521
 49    -0.13074582
 50     0.06092206
 51     0.06645766
 52     0.05606153
 53     0.06516526
 54     0.06184213
 55     0.06104299
 56     0.06088438
 57     0.06693149
 58     0.06507337
 59     0.06654516
 60     0.06164511
 61     0.06651776
 62     0.06621305
 63     0.06200353
 64     0.06182584
 65     0.06064817
 66     0.06059495

> <FUKUI MINUS (MULLIKEN)>
BIOVIA, TYPE=DOUBLE, ATOMISTIC, VERSION=1                                       
  1     0.01105710
  2     0.00589809
  3     0.00931603
  4     0.00941635
  5     0.03327018
  6     0.00633923
  7     0.01080908
  8     0.00702568
  9     0.00116063
 10     0.00040367
 11     0.00588025
 12     0.01458411
 13     0.00838598
 14     0.01248377
 15     0.00666540
 16     0.00821090
 17     0.00587772
 18     0.01009173
 19     0.01400342
 20     0.01220752
 21     0.01666036
 22     0.01108798
 23     0.01093800
 24     0.03013530
 25     0.00645267
 26     0.00546256
 27     0.01498812
 28     0.01141362
 29     0.00617961
 30     0.00303561
 31     0.00694530
 32     0.01419057
 33     0.00597845
 34     0.01162698
 35     0.00590606
 36     0.00933433
 37     0.00596567
 38     0.01584147
 39     0.01478450
 40     0.00362629
 41     0.00379724
 42     0.01932297
 43     0.01734402
 44     0.00962793
 45     0.00782555
 46     0.01179475
 47     0.01898005
 48     0.01549158
 49     0.02154865
 50     0.03003455
 51     0.02377497
 52     0.03293688
 53     0.02538574
 54     0.03010138
 55     0.02991410
 56     0.03022558
 57     0.03108065
 58     0.02625122
 59     0.02134775
 60     0.02916070
 61     0.02459786
 62     0.02123942
 63     0.02829169
 64     0.02965816
 65     0.02815903
 66     0.02846729

> <FUKUI MINUS (HIRSHFELD)>
BIOVIA, TYPE=DOUBLE, ATOMISTIC, VERSION=1                                       
  1     0.01220009
  2     0.00499401
  3     0.00781879
  4     0.00795892
  5     0.03914861
  6     0.00569093
  7     0.01169695
  8     0.00715214
  9     0.01128662
 10     0.01030535
 11     0.00498568
 12     0.02245781
 13     0.00896301
 14     0.01534774
 15     0.01458362
 16     0.00860848
 17     0.01503979
 18     0.01412023
 19     0.02294282
 20     0.02037974
 21     0.02631694
 22     0.02025511
 23     0.02161442
 24     0.01562039
 25     0.00670898
 26     0.00591738
 27     0.01535101
 28     0.01145631
 29     0.00535068
 30     0.01131754
 31     0.00883706
 32     0.02366836
 33     0.00423227
 34     0.02149220
 35     0.01045788
 36     0.01934912
 37     0.00370857
 38     0.01865572
 39     0.02348111
 40     0.01373386
 41     0.00842037
 42     0.02718810
 43     0.01914330
 44     0.01824090
 45     0.02102108
 46     0.02241856
 47     0.02814627
 48     0.02530434
 49     0.03039207
 50     0.01575910
 51     0.01203095
 52     0.01800260
 53     0.01346759
 54     0.01587740
 55     0.01558930
 56     0.01567300
 57     0.01627764
 58     0.01423025
 59     0.01052952
 60     0.01510012
 61     0.01281583
 62     0.01056733
 63     0.01502183
 64     0.01608428
 65     0.01466724
 66     0.01498733

> <FUKUI PLUS (MULLIKEN)>
BIOVIA, TYPE=DOUBLE, ATOMISTIC, VERSION=1                                       
  1     0.00966668
  2     0.00550690
  3     0.00888543
  4     0.00842054
  5     0.03405488
  6     0.00609633
  7     0.01273959
  8     0.00807499
  9    -0.00038087
 10    -0.00103786
 11     0.00592026
 12     0.01357970
 13     0.00779770
 14     0.01258197
 15     0.00645639
 16     0.00822990
 17     0.00591585
 18     0.01055519
 19     0.01494655
 20     0.01209911
 21     0.01843756
 22     0.00892475
 23     0.01065576
 24     0.03039920
 25     0.00620723
 26     0.00471423
 27     0.01427607
 28     0.01152734
 29     0.00650994
 30     0.00307827
 31     0.00673492
 32     0.01494989
 33     0.00575594
 34     0.01230274
 35     0.00615788
 36     0.01132988
 37     0.00561413
 38     0.01674164
 39     0.01192133
 40     0.00276743
 41     0.00347812
 42     0.01869008
 43     0.01844168
 44     0.01086728
 45     0.00593133
 46     0.01136183
 47     0.02178242
 48     0.01740469
 49     0.02337302
 50     0.03008539
 51     0.02359007
 52     0.03251712
 53     0.02518075
 54     0.03009673
 55     0.03009668
 56     0.03045110
 57     0.03137691
 58     0.02634703
 59     0.02114821
 60     0.02916640
 61     0.02446573
 62     0.02098416
 63     0.02806846
 64     0.02931573
 65     0.02821984
 66     0.02844385

> <FUKUI PLUS (HIRSHFELD)>
BIOVIA, TYPE=DOUBLE, ATOMISTIC, VERSION=1                                       
  1     0.01109839
  2     0.00499504
  3     0.00794410
  4     0.00791975
  5     0.03712191
  6     0.00559516
  7     0.01212056
  8     0.00756269
  9     0.01153663
 10     0.01092879
 11     0.00520870
 12     0.02166423
 13     0.00848856
 14     0.01507007
 15     0.01440911
 16     0.00833719
 17     0.01517364
 18     0.01433047
 19     0.02299588
 20     0.01984657
 21     0.02598846
 22     0.01988267
 23     0.02229891
 24     0.01587952
 25     0.00651525
 26     0.00599066
 27     0.01427639
 28     0.01072400
 29     0.00599070
 30     0.01174294
 31     0.00883610
 32     0.02351444
 33     0.00439250
 34     0.02185762
 35     0.01104522
 36     0.02046085
 37     0.00385251
 38     0.01843698
 39     0.02239591
 40     0.01385175
 41     0.00926049
 42     0.02582426
 43     0.01866346
 44     0.01833735
 45     0.02131978
 46     0.02268663
 47     0.02876282
 48     0.02536485
 49     0.03023895
 50     0.01606005
 51     0.01262841
 52     0.01805418
 53     0.01428942
 54     0.01567213
 55     0.01598982
 56     0.01593517
 57     0.01628296
 58     0.01469557
 59     0.01040269
 60     0.01490938
 61     0.01307996
 62     0.01058796
 63     0.01482083
 64     0.01593814
 65     0.01487165
 66     0.01517367

> <FUKUI ZERO (MULLIKEN)>
BIOVIA, TYPE=DOUBLE, ATOMISTIC, VERSION=1                                       
  1     0.01036189
  2     0.00570250
  3     0.00910073
  4     0.00891844
  5     0.03366253
  6     0.00621778
  7     0.01177434
  8     0.00755034
  9     0.00038988
 10    -0.00031710
 11     0.00590025
 12     0.01408191
 13     0.00809184
 14     0.01253287
 15     0.00656089
 16     0.00822040
 17     0.00589678
 18     0.01032346
 19     0.01447498
 20     0.01215332
 21     0.01754896
 22     0.01000637
 23     0.01079688
 24     0.03026725
 25     0.00632995
 26     0.00508839
 27     0.01463210
 28     0.01147048
 29     0.00634477
 30     0.00305694
 31     0.00684011
 32     0.01457023
 33     0.00586719
 34     0.01196486
 35     0.00603197
 36     0.01033210
 37     0.00578990
 38     0.01629155
 39     0.01335291
 40     0.00319686
 41     0.00363768
 42     0.01900653
 43     0.01789285
 44     0.01024760
 45     0.00687844
 46     0.01157829
 47     0.02038123
 48     0.01644814
 49     0.02246083
 50     0.03005997
 51     0.02368252
 52     0.03272700
 53     0.02528324
 54     0.03009906
 55     0.03000539
 56     0.03033834
 57     0.03122878
 58     0.02629913
 59     0.02124798
 60     0.02916355
 61     0.02453179
 62     0.02111179
 63     0.02818008
 64     0.02948695
 65     0.02818944
 66     0.02845557

> <FUKUI ZERO (HIRSHFELD)>
BIOVIA, TYPE=DOUBLE, ATOMISTIC, VERSION=1                                       
  1     0.01164924
  2     0.00499452
  3     0.00788145
  4     0.00793933
  5     0.03813526
  6     0.00564305
  7     0.01190875
  8     0.00735741
  9     0.01141162
 10     0.01061707
 11     0.00509719
 12     0.02206102
 13     0.00872578
 14     0.01520891
 15     0.01449636
 16     0.00847284
 17     0.01510672
 18     0.01422535
 19     0.02296935
 20     0.02011316
 21     0.02615270
 22     0.02006889
 23     0.02195667
 24     0.01574996
 25     0.00661212
 26     0.00595402
 27     0.01481370
 28     0.01109015
 29     0.00567069
 30     0.01153024
 31     0.00883658
 32     0.02359140
 33     0.00431238
 34     0.02167491
 35     0.01075155
 36     0.01990499
 37     0.00378054
 38     0.01854635
 39     0.02293851
 40     0.01379280
 41     0.00884043
 42     0.02650618
 43     0.01890338
 44     0.01828913
 45     0.02117043
 46     0.02255260
 47     0.02845454
 48     0.02533460
 49     0.03031551
 50     0.01590958
 51     0.01232968
 52     0.01802839
 53     0.01387850
 54     0.01577477
 55     0.01578956
 56     0.01580408
 57     0.01628030
 58     0.01446291
 59     0.01046611
 60     0.01500475
 61     0.01294790
 62     0.01057765
 63     0.01492133
 64     0.01601121
 65     0.01476945
 66     0.01508050

> <OPERATION STATUS>
BIOVIA, TYPE=STATUS, VERSION=1                                                  
SUCCESS

$$$$
