Materials Studio SDF calculation
TCVAMP81A 

 66  0  0  0  0  0              1 V2000
   -0.6213    1.7902    0.0000 C   0  0
    5.5648   -0.3447    0.0000 C   0  0
    1.8528    1.7789    0.0000 C   0  0
    0.6397    3.9267    0.0000 C   0  0
    3.0874    3.9246    0.0000 C   0  0
   -1.8523    2.5118    0.0000 C   0  0
    0.6222    2.4924    0.0000 C   0  0
    6.7769    0.3915    0.0000 C   0  0
    3.0845    2.4909    0.0000 C   0  0
    1.8636    4.6096    0.0000 C   0  0
   -5.5441    1.7677    0.0000 C   0  0
   -0.6088    4.6194    0.0000 C   0  0
   -3.0972    1.7982    0.0000 C   0  0
   -1.7969    3.9410    0.0000 C   0  0
   -4.3614    2.4627    0.0000 C   0  0
    4.3219    0.3536    0.0000 C   0  0
    4.3201    1.7810    0.0000 C   0  0
    6.7718    1.7705    0.0000 C   0  0
    5.5544    2.4962    0.0000 C   0  0
   -1.8518   -0.3464    0.0000 C   0  0
    0.6191   -0.3580    0.0000 C   0  0
   -3.0879    0.3687    0.0000 C   0  0
   -0.6191    0.3580    0.0000 C   0  0
    1.8518    0.3464    0.0000 C   0  0
   -6.7769   -0.3915    0.0000 C   0  0
   -4.3219   -0.3536    0.0000 C   0  0
   -5.5648    0.3447    0.0000 C   0  0
   -0.6222   -2.4924    0.0000 C   0  0
    1.8523   -2.5118    0.0000 C   0  0
   -1.8528   -1.7789    0.0000 C   0  0
    0.6213   -1.7902    0.0000 C   0  0
    3.0972   -1.7982    0.0000 C   0  0
   -5.5544   -2.4962    0.0000 C   0  0
   -3.0845   -2.4909    0.0000 C   0  0
   -6.7718   -1.7705    0.0000 C   0  0
   -4.3201   -1.7810    0.0000 C   0  0
    3.0879   -0.3687    0.0000 C   0  0
   -1.8636   -4.6096    0.0000 C   0  0
   -0.6397   -3.9267    0.0000 C   0  0
   -3.0874   -3.9246    0.0000 C   0  0
    1.7969   -3.9410    0.0000 C   0  0
    4.3427    4.6128    0.0000 C   0  0
    0.6088   -4.6194    0.0000 C   0  0
   -1.8628   -5.7018    0.0000 H   0  0
   -4.3427   -4.6128    0.0000 C   0  0
   -5.5268   -3.9251    0.0000 C   0  0
   -7.7135   -2.3230    0.0000 H   0  0
    1.8628    5.7018    0.0000 H   0  0
   -7.7222    0.1548    0.0000 H   0  0
    5.5268    3.9251    0.0000 C   0  0
    5.5441   -1.7677    0.0000 C   0  0
    4.3614   -2.4627    0.0000 C   0  0
   -6.4955    2.3034    0.0000 H   0  0
   -4.3984    3.5503    0.0000 H   0  0
   -6.4780   -4.4612    0.0000 H   0  0
   -4.3357   -5.7041    0.0000 H   0  0
    0.5994   -5.7107    0.0000 H   0  0
    2.7214   -4.5149    0.0000 H   0  0
    4.3984   -3.5503    0.0000 H   0  0
    6.4955   -2.3034    0.0000 H   0  0
    7.7222   -0.1548    0.0000 H   0  0
    7.7135    2.3230    0.0000 H   0  0
    6.4780    4.4612    0.0000 H   0  0
    4.3357    5.7041    0.0000 H   0  0
   -0.5994    5.7107    0.0000 H   0  0
   -2.7214    4.5149    0.0000 H   0  0
M  END

> <TOTAL ENERGY>
BIOVIA, TYPE=DOUBLE, VERSION=1                                                  
 -1838.55925367

> <BINDING ENERGY>
BIOVIA, TYPE=DOUBLE, VERSION=1                                                  
   -15.52396406

> <HIRSHFELD CHARGE>
BIOVIA, TYPE=DOUBLE, ATOMISTIC, VERSION=1                                       
  1    -0.00079437
  2    -0.00071805
  3    -0.00065468
  4    -0.00157012
  5    -0.00107669
  6    -0.00040358
  7     0.00022853
  8    -0.04373216
  9     0.00004056
 10    -0.04418930
 11    -0.04258554
 12    -0.04235906
 13    -0.00004875
 14    -0.04380202
 15    -0.04416956
 16     0.00099032
 17     0.00030446
 18    -0.04360367
 19    -0.00041980
 20    -0.00174910
 21    -0.00183448
 22    -0.00050266
 23    -0.00183448
 24    -0.00174910
 25    -0.04373216
 26     0.00099032
 27    -0.00071805
 28     0.00022853
 29    -0.00040358
 30    -0.00065468
 31    -0.00079437
 32    -0.00004875
 33    -0.00041980
 34     0.00004056
 35    -0.04360367
 36     0.00030446
 37    -0.00050266
 38    -0.04418930
 39    -0.00157012
 40    -0.00107669
 41    -0.04380202
 42    -0.04327806
 43    -0.04235906
 44     0.04313376
 45    -0.04327806
 46    -0.04302546
 47     0.04542538
 48     0.04313376
 49     0.04531715
 50    -0.04302546
 51    -0.04258554
 52    -0.04416956
 53     0.04568288
 54     0.04300165
 55     0.04569996
 56     0.04572336
 57     0.04595347
 58     0.04319990
 59     0.04300165
 60     0.04568288
 61     0.04531715
 62     0.04542538
 63     0.04569996
 64     0.04572336
 65     0.04595347
 66     0.04319990

> <HOMO ENERGY>
BIOVIA, TYPE=DOUBLE, VERSION=1                                                  
    -0.16440212

> <LUMO ENERGY>
BIOVIA, TYPE=DOUBLE, VERSION=1                                                  
    -0.11049897

> <LUMO-HOMO ENERGY>
BIOVIA, TYPE=DOUBLE, VERSION=1                                                  
     0.05390314

> <MULLIKEN CHARGE>
BIOVIA, TYPE=DOUBLE, ATOMISTIC, VERSION=1                                       
  1     0.01147274
  2     0.07835098
  3     0.02379212
  4     0.07975259
  5     0.08002335
  6     0.03822862
  7     0.01614083
  8    -0.12047067
  9     0.02160149
 10    -0.16545964
 11    -0.11865875
 12    -0.11783483
 13     0.03859265
 14    -0.12082013
 15    -0.12364134
 16     0.03177587
 17     0.03577497
 18    -0.11771152
 19     0.07553157
 20     0.01313972
 21     0.00806465
 22     0.01558746
 23     0.00806465
 24     0.01313972
 25    -0.12047067
 26     0.03177587
 27     0.07835098
 28     0.01614083
 29     0.03822862
 30     0.02379212
 31     0.01147274
 32     0.03859265
 33     0.07553157
 34     0.02160149
 35    -0.11771152
 36     0.03577497
 37     0.01558746
 38    -0.16545964
 39     0.07975259
 40     0.08002335
 41    -0.12082013
 42    -0.11608226
 43    -0.11783483
 44     0.05476971
 45    -0.11608226
 46    -0.11335031
 47     0.05956896
 48     0.05476971
 49     0.05932009
 50    -0.11335031
 51    -0.11865875
 52    -0.12364134
 53     0.06112717
 54     0.06498055
 55     0.06003476
 56     0.05975089
 57     0.06100197
 58     0.06564573
 59     0.06498055
 60     0.06112717
 61     0.05932009
 62     0.05956896
 63     0.06003476
 64     0.05975089
 65     0.06100197
 66     0.06564573

> <FUKUI MINUS (MULLIKEN)>
BIOVIA, TYPE=DOUBLE, ATOMISTIC, VERSION=1                                       
  1     0.00432274
  2     0.00463375
  3     0.00765344
  4    -0.00087927
  5    -0.00046999
  6     0.01792620
  7     0.00843836
  8     0.01646820
  9     0.01138866
 10     0.03334482
 11     0.01632214
 12     0.01889053
 13     0.00974655
 14     0.00720605
 15     0.00842278
 16     0.00595525
 17     0.00531984
 18     0.00925968
 19     0.01251782
 20     0.01413019
 21     0.00810591
 22     0.00552043
 23     0.00810591
 24     0.01413019
 25     0.01646820
 26     0.00595525
 27     0.00463375
 28     0.00843836
 29     0.01792620
 30     0.00765344
 31     0.00432274
 32     0.00974655
 33     0.01251782
 34     0.01138866
 35     0.00925968
 36     0.00531984
 37     0.00552043
 38     0.03334482
 39    -0.00087927
 40    -0.00046999
 41     0.00720605
 42     0.01428700
 43     0.01889053
 44     0.03174347
 45     0.01428700
 46     0.00941107
 47     0.02883525
 48     0.03174347
 49     0.02918940
 50     0.00941107
 51     0.01632214
 52     0.00842278
 53     0.02934994
 54     0.02209968
 55     0.02915656
 56     0.02796029
 57     0.02982427
 58     0.02391895
 59     0.02209968
 60     0.02934994
 61     0.02918940
 62     0.02883525
 63     0.02915656
 64     0.02796029
 65     0.02982427
 66     0.02391895

> <FUKUI MINUS (HIRSHFELD)>
BIOVIA, TYPE=DOUBLE, ATOMISTIC, VERSION=1                                       
  1     0.00504572
  2     0.01315907
  3     0.00881857
  4     0.00997289
  5     0.01016935
  6     0.02020255
  7     0.00601337
  8     0.02520134
  9     0.00956896
 10     0.03769569
 11     0.02486729
 12     0.02695744
 13     0.01289870
 14     0.01806012
 15     0.01817740
 16     0.00450782
 17     0.00592621
 18     0.01987991
 19     0.01977650
 20     0.01417471
 21     0.00835507
 22     0.00575403
 23     0.00835507
 24     0.01417471
 25     0.02520134
 26     0.00450782
 27     0.01315907
 28     0.00601337
 29     0.02020255
 30     0.00881857
 31     0.00504572
 32     0.01289870
 33     0.01977650
 34     0.00956896
 35     0.01987991
 36     0.00592621
 37     0.00575403
 38     0.03769569
 39     0.00997289
 40     0.01016935
 41     0.01806012
 42     0.02286676
 43     0.02695744
 44     0.01743771
 45     0.02286676
 46     0.02000351
 47     0.01488002
 48     0.01743771
 49     0.01562008
 50     0.02000351
 51     0.02486729
 52     0.01817740
 53     0.01557302
 54     0.01116858
 55     0.01504695
 56     0.01453624
 57     0.01577026
 58     0.01198643
 59     0.01116858
 60     0.01557302
 61     0.01562008
 62     0.01488002
 63     0.01504695
 64     0.01453624
 65     0.01577026
 66     0.01198643

> <FUKUI PLUS (MULLIKEN)>
BIOVIA, TYPE=DOUBLE, ATOMISTIC, VERSION=1                                       
  1     0.00389784
  2     0.00451337
  3     0.00831897
  4    -0.00200811
  5    -0.00138559
  6     0.01908034
  7     0.00859083
  8     0.01568108
  9     0.01088333
 10     0.03403272
 11     0.01691796
 12     0.02004663
 13     0.00882827
 14     0.00573078
 15     0.00831271
 16     0.00605799
 17     0.00555594
 18     0.00821655
 19     0.01256213
 20     0.01499970
 21     0.00826284
 22     0.00512689
 23     0.00826284
 24     0.01499970
 25     0.01568108
 26     0.00605799
 27     0.00451337
 28     0.00859083
 29     0.01908034
 30     0.00831897
 31     0.00389784
 32     0.00882827
 33     0.01256213
 34     0.01088333
 35     0.00821655
 36     0.00555594
 37     0.00512689
 38     0.03403272
 39    -0.00200811
 40    -0.00138559
 41     0.00573078
 42     0.01510680
 43     0.02004663
 44     0.03161967
 45     0.01510680
 46     0.00921617
 47     0.02905648
 48     0.03161967
 49     0.02930523
 50     0.00921617
 51     0.01691796
 52     0.00831271
 53     0.02960857
 54     0.02233471
 55     0.02946060
 56     0.02807893
 57     0.02986359
 58     0.02412609
 59     0.02233471
 60     0.02960857
 61     0.02930523
 62     0.02905648
 63     0.02946060
 64     0.02807893
 65     0.02986359
 66     0.02412609

> <FUKUI PLUS (HIRSHFELD)>
BIOVIA, TYPE=DOUBLE, ATOMISTIC, VERSION=1                                       
  1     0.00540496
  2     0.01311230
  3     0.00904195
  4     0.01008176
  5     0.01063605
  6     0.02002160
  7     0.00625387
  8     0.02471992
  9     0.00939158
 10     0.03653569
 11     0.02506900
 12     0.02654716
 13     0.01279937
 14     0.01774978
 15     0.01789219
 16     0.00453560
 17     0.00603235
 18     0.02000957
 19     0.01926121
 20     0.01420352
 21     0.00856607
 22     0.00608629
 23     0.00856607
 24     0.01420352
 25     0.02471992
 26     0.00453560
 27     0.01311230
 28     0.00625387
 29     0.02002160
 30     0.00904195
 31     0.00540496
 32     0.01279937
 33     0.01926121
 34     0.00939158
 35     0.02000957
 36     0.00603235
 37     0.00608629
 38     0.03653569
 39     0.01008176
 40     0.01063605
 41     0.01774978
 42     0.02257976
 43     0.02654716
 44     0.01758899
 45     0.02257976
 46     0.02053605
 47     0.01486352
 48     0.01758899
 49     0.01562457
 50     0.02053605
 51     0.02506900
 52     0.01789219
 53     0.01589812
 54     0.01118090
 55     0.01523402
 56     0.01471117
 57     0.01602159
 58     0.01189684
 59     0.01118090
 60     0.01589812
 61     0.01562457
 62     0.01486352
 63     0.01523402
 64     0.01471117
 65     0.01602159
 66     0.01189684

> <FUKUI ZERO (MULLIKEN)>
BIOVIA, TYPE=DOUBLE, ATOMISTIC, VERSION=1                                       
  1     0.00411029
  2     0.00457356
  3     0.00798621
  4    -0.00144369
  5    -0.00092779
  6     0.01850327
  7     0.00851459
  8     0.01607464
  9     0.01113599
 10     0.03368877
 11     0.01662005
 12     0.01946858
 13     0.00928741
 14     0.00646841
 15     0.00836775
 16     0.00600662
 17     0.00543789
 18     0.00873812
 19     0.01253998
 20     0.01456494
 21     0.00818438
 22     0.00532366
 23     0.00818438
 24     0.01456494
 25     0.01607464
 26     0.00600662
 27     0.00457356
 28     0.00851459
 29     0.01850327
 30     0.00798621
 31     0.00411029
 32     0.00928741
 33     0.01253998
 34     0.01113599
 35     0.00873812
 36     0.00543789
 37     0.00532366
 38     0.03368877
 39    -0.00144369
 40    -0.00092779
 41     0.00646841
 42     0.01469690
 43     0.01946858
 44     0.03168157
 45     0.01469690
 46     0.00931362
 47     0.02894586
 48     0.03168157
 49     0.02924732
 50     0.00931362
 51     0.01662005
 52     0.00836775
 53     0.02947925
 54     0.02221720
 55     0.02930858
 56     0.02801961
 57     0.02984393
 58     0.02402252
 59     0.02221720
 60     0.02947925
 61     0.02924732
 62     0.02894586
 63     0.02930858
 64     0.02801961
 65     0.02984393
 66     0.02402252

> <FUKUI ZERO (HIRSHFELD)>
BIOVIA, TYPE=DOUBLE, ATOMISTIC, VERSION=1                                       
  1     0.00522534
  2     0.01313569
  3     0.00893026
  4     0.01002732
  5     0.01040270
  6     0.02011208
  7     0.00613362
  8     0.02496063
  9     0.00948027
 10     0.03711569
 11     0.02496814
 12     0.02675230
 13     0.01284903
 14     0.01790495
 15     0.01803479
 16     0.00452171
 17     0.00597928
 18     0.01994474
 19     0.01951885
 20     0.01418911
 21     0.00846057
 22     0.00592016
 23     0.00846057
 24     0.01418911
 25     0.02496063
 26     0.00452171
 27     0.01313569
 28     0.00613362
 29     0.02011208
 30     0.00893026
 31     0.00522534
 32     0.01284903
 33     0.01951885
 34     0.00948027
 35     0.01994474
 36     0.00597928
 37     0.00592016
 38     0.03711569
 39     0.01002732
 40     0.01040270
 41     0.01790495
 42     0.02272326
 43     0.02675230
 44     0.01751335
 45     0.02272326
 46     0.02026978
 47     0.01487177
 48     0.01751335
 49     0.01562233
 50     0.02026978
 51     0.02496814
 52     0.01803479
 53     0.01573557
 54     0.01117474
 55     0.01514049
 56     0.01462371
 57     0.01589592
 58     0.01194163
 59     0.01117474
 60     0.01573557
 61     0.01562233
 62     0.01487177
 63     0.01514049
 64     0.01462371
 65     0.01589592
 66     0.01194163

> <OPERATION STATUS>
BIOVIA, TYPE=STATUS, VERSION=1                                                  
SUCCESS

$$$$
