Materials Studio SDF calculation
TCVAMP81A 

 66  0  0  0  0  0              1 V2000
    1.6382    1.0944    0.0057 C   0  0
    0.4295    3.2661   -0.0080 C   0  0
    4.1290    1.0716    0.0168 C   0  0
    2.8893    3.2154    0.0161 C   0  0
    5.3163    3.2138    0.0308 C   0  0
    0.4116    1.8230   -0.0027 C   0  0
    2.8883    1.7832    0.0124 C   0  0
    1.6544    3.9106    0.0069 C   0  0
    5.3216    1.8144    0.0251 C   0  0
    4.1184    3.9127    0.0264 C   0  0
   -3.2988    1.1382   -0.0062 C   0  0
   -4.5308    3.2457   -0.0294 C   0  0
   -0.8271    1.1216   -0.0037 C   0  0
   -2.0680    3.2718   -0.0237 C   0  0
   -4.5473    1.8574   -0.0133 C   0  0
   -2.0691    1.8444   -0.0101 C   0  0
   -3.3201    3.9774   -0.0365 C   0  0
   -0.8401    4.0016   -0.0278 C   0  0
   -3.3175    5.3938   -0.0574 C   0  0
   -0.8987    5.4007   -0.0541 C   0  0
   -5.7771    1.1127   -0.0061 C   0  0
   -2.1217    6.0895   -0.0684 C   0  0
   -5.7802   -0.2497    0.0046 C   0  0
   -6.7231   -0.8002    0.0098 H   0  0
    0.3876   -1.0290    0.0063 C   0  0
    2.8589   -1.0659    0.0097 C   0  0
   -0.8398   -0.3008    0.0030 C   0  0
    1.6244   -0.3367    0.0074 C   0  0
    4.1096   -0.3836    0.0124 C   0  0
   -4.5537   -0.9988    0.0079 C   0  0
   -2.0839   -1.0062    0.0058 C   0  0
   -2.1587   -5.2647    0.0178 C   0  0
   -3.3095   -0.2870    0.0030 C   0  0
   -3.3331   -4.5647    0.0190 C   0  0
    1.5826   -3.1907    0.0088 C   0  0
    4.0446   -3.2404    0.0077 C   0  0
    0.3642   -2.4628    0.0089 C   0  0
    2.8287   -2.4967    0.0085 C   0  0
    5.2670   -2.5361    0.0081 C   0  0
   -3.3474   -3.1311    0.0150 C   0  0
   -0.8752   -3.1577    0.0113 C   0  0
   -4.5448   -2.3973    0.0146 C   0  0
   -2.1001   -2.4308    0.0110 C   0  0
    5.2943   -1.1541    0.0109 C   0  0
    0.3223   -5.2915    0.0124 C   0  0
    2.8002   -5.3367    0.0078 C   0  0
    1.5574   -4.6257    0.0095 C   0  0
    3.9944   -4.6699    0.0066 C   0  0
   -0.8921   -4.5916    0.0139 C   0  0
   -6.7167    1.6684   -0.0100 H   0  0
    4.1090    5.0040    0.0301 H   0  0
    6.2653    3.7522    0.0383 H   0  0
    1.7044    4.9993    0.0109 H   0  0
    6.2029   -3.0982    0.0066 H   0  0
    4.9375   -5.2202    0.0053 H   0  0
    2.7739   -6.4280    0.0075 H   0  0
    0.3067   -6.3838    0.0136 H   0  0
    6.2830    1.3031    0.0288 H   0  0
    6.2635   -0.6577    0.0113 H   0  0
   -2.1218    7.1801   -0.0888 H   0  0
   -4.2727    5.9223   -0.0667 H   0  0
    0.0197    5.9854   -0.0647 H   0  0
   -5.4765    3.7928   -0.0372 H   0  0
   -5.4972   -2.9331    0.0183 H   0  0
   -4.2905   -5.0900    0.0225 H   0  0
   -2.1657   -6.3563    0.0195 H   0  0
M  END

> <SURFACE AREA>
BIOVIA, TYPE=DOUBLE, VERSION=1                                                  
  1742.94190509

> <CAVITY VOLUME>
BIOVIA, TYPE=DOUBLE, VERSION=1                                                  
  4042.17047738

> <DIELECTRIC ENERGY>
BIOVIA, TYPE=DOUBLE, VERSION=1                                                  
    -0.02246595

> <SOLVATION ENERGY>
BIOVIA, TYPE=DOUBLE, VERSION=1                                                  
    -0.02246595

> <TOTAL ENERGY>
BIOVIA, TYPE=DOUBLE, VERSION=1                                                  
 -1838.56494470

> <BINDING ENERGY>
BIOVIA, TYPE=DOUBLE, VERSION=1                                                  
   -15.52965509

> <HOMO ENERGY>
BIOVIA, TYPE=DOUBLE, VERSION=1                                                  
    -0.17113930

> <LUMO ENERGY>
BIOVIA, TYPE=DOUBLE, VERSION=1                                                  
    -0.12120467

> <LUMO-HOMO ENERGY>
BIOVIA, TYPE=DOUBLE, VERSION=1                                                  
     0.04993464

> <OPERATION STATUS>
BIOVIA, TYPE=STATUS, VERSION=1                                                  
SUCCESS

$$$$
