Materials Studio SDF calculation
TCVAMP81A 

 66  0  0  0  0  0              1 V2000
   -0.6213    1.7902    0.0000 C   0  0
    5.5648   -0.3447    0.0000 C   0  0
    1.8528    1.7789    0.0000 C   0  0
    0.6397    3.9267    0.0000 C   0  0
    3.0874    3.9246    0.0000 C   0  0
   -1.8523    2.5118    0.0000 C   0  0
    0.6222    2.4924    0.0000 C   0  0
    6.7769    0.3915    0.0000 C   0  0
    3.0845    2.4909    0.0000 C   0  0
    1.8636    4.6096    0.0000 C   0  0
   -5.5441    1.7677    0.0000 C   0  0
   -0.6088    4.6194    0.0000 C   0  0
   -3.0972    1.7982    0.0000 C   0  0
   -1.7969    3.9410    0.0000 C   0  0
   -4.3614    2.4627    0.0000 C   0  0
    4.3219    0.3536    0.0000 C   0  0
    4.3201    1.7810    0.0000 C   0  0
    6.7718    1.7705    0.0000 C   0  0
    5.5544    2.4962    0.0000 C   0  0
   -1.8518   -0.3464    0.0000 C   0  0
    0.6191   -0.3580    0.0000 C   0  0
   -3.0879    0.3687    0.0000 C   0  0
   -0.6191    0.3580    0.0000 C   0  0
    1.8518    0.3464    0.0000 C   0  0
   -6.7769   -0.3915    0.0000 C   0  0
   -4.3219   -0.3536    0.0000 C   0  0
   -5.5648    0.3447    0.0000 C   0  0
   -0.6222   -2.4924    0.0000 C   0  0
    1.8523   -2.5118    0.0000 C   0  0
   -1.8528   -1.7789    0.0000 C   0  0
    0.6213   -1.7902    0.0000 C   0  0
    3.0972   -1.7982    0.0000 C   0  0
   -5.5544   -2.4962    0.0000 C   0  0
   -3.0845   -2.4909    0.0000 C   0  0
   -6.7718   -1.7705    0.0000 C   0  0
   -4.3201   -1.7810    0.0000 C   0  0
    3.0879   -0.3687    0.0000 C   0  0
   -1.8636   -4.6096    0.0000 C   0  0
   -0.6397   -3.9267    0.0000 C   0  0
   -3.0874   -3.9246    0.0000 C   0  0
    1.7969   -3.9410    0.0000 C   0  0
    4.3427    4.6128    0.0000 C   0  0
    0.6088   -4.6194    0.0000 C   0  0
   -1.8628   -5.7018    0.0000 H   0  0
   -4.3427   -4.6128    0.0000 C   0  0
   -5.5268   -3.9251    0.0000 C   0  0
   -7.7135   -2.3230    0.0000 H   0  0
    1.8628    5.7018    0.0000 H   0  0
   -7.7222    0.1548    0.0000 H   0  0
    5.5268    3.9251    0.0000 C   0  0
    5.5441   -1.7677    0.0000 C   0  0
    4.3614   -2.4627    0.0000 C   0  0
   -6.4955    2.3034    0.0000 H   0  0
   -4.3984    3.5503    0.0000 H   0  0
   -6.4780   -4.4612    0.0000 H   0  0
   -4.3357   -5.7041    0.0000 H   0  0
    0.5994   -5.7107    0.0000 H   0  0
    2.7214   -4.5149    0.0000 H   0  0
    4.3984   -3.5503    0.0000 H   0  0
    6.4955   -2.3034    0.0000 H   0  0
    7.7222   -0.1548    0.0000 H   0  0
    7.7135    2.3230    0.0000 H   0  0
    6.4780    4.4612    0.0000 H   0  0
    4.3357    5.7041    0.0000 H   0  0
   -0.5994    5.7107    0.0000 H   0  0
   -2.7214    4.5149    0.0000 H   0  0
M  END

> <SURFACE AREA>
BIOVIA, TYPE=DOUBLE, VERSION=1                                                  
  1743.54092537

> <CAVITY VOLUME>
BIOVIA, TYPE=DOUBLE, VERSION=1                                                  
  4039.46831536

> <DIELECTRIC ENERGY>
BIOVIA, TYPE=DOUBLE, VERSION=1                                                  
    -0.02405747

> <SOLVATION ENERGY>
BIOVIA, TYPE=DOUBLE, VERSION=1                                                  
    -0.02405747

> <TOTAL ENERGY>
BIOVIA, TYPE=DOUBLE, VERSION=1                                                  
 -1838.57618328

> <BINDING ENERGY>
BIOVIA, TYPE=DOUBLE, VERSION=1                                                  
   -15.54089367

> <HOMO ENERGY>
BIOVIA, TYPE=DOUBLE, VERSION=1                                                  
    -0.17329766

> <LUMO ENERGY>
BIOVIA, TYPE=DOUBLE, VERSION=1                                                  
    -0.11945691

> <LUMO-HOMO ENERGY>
BIOVIA, TYPE=DOUBLE, VERSION=1                                                  
     0.05384075

> <OPERATION STATUS>
BIOVIA, TYPE=STATUS, VERSION=1                                                  
SUCCESS

$$$$
