Materials Studio SDF calculation
TCVAMP81A 

 66  0  0  0  0  0              1 V2000
   -0.6097    1.7672   -0.0038 C   0  0
    5.5832   -0.3916   -0.0169 C   0  0
    1.8747    1.7563   -0.0009 C   0  0
    0.6465    3.8983   -0.0120 C   0  0
    3.0911    3.8746   -0.0078 C   0  0
   -1.8390    2.4909   -0.0091 C   0  0
    0.6420    2.4682   -0.0055 C   0  0
    6.8317    0.3052   -0.0180 C   0  0
    3.0852    2.5005   -0.0018 C   0  0
    1.8815    4.6112   -0.0131 C   0  0
   -5.5514    1.8137   -0.0115 C   0  0
   -0.6598    4.5809   -0.0254 C   0  0
   -3.0779    1.7911   -0.0070 C   0  0
   -1.9859    3.7267   -0.0189 C   0  0
   -4.3108    2.5238   -0.0137 C   0  0
    4.3035    0.3407   -0.0238 C   0  0
    4.3663    1.7612   -0.0325 C   0  0
    6.8561    1.7316   -0.0258 C   0  0
    5.6248    2.4331   -0.0330 C   0  0
   -1.8651   -0.3580    0.0064 C   0  0
    0.6164   -0.3787    0.0079 C   0  0
   -3.0908    0.3635    0.0015 C   0  0
   -0.6224    0.3438    0.0035 C   0  0
    1.8619    0.3116    0.0049 C   0  0
   -6.8124   -0.3051    0.0014 C   0  0
   -4.3376   -0.3467    0.0050 C   0  0
   -5.5644    0.3858   -0.0016 C   0  0
   -0.6479   -2.5108    0.0189 C   0  0
    1.8165   -2.5429    0.0173 C   0  0
   -1.8835   -1.7926    0.0148 C   0  0
    0.5952   -1.8084    0.0143 C   0  0
    3.0398   -1.8282    0.0133 C   0  0
   -5.6249   -2.4260    0.0167 C   0  0
   -3.1169   -2.5029    0.0181 C   0  0
   -6.8050   -1.7221    0.0118 C   0  0
   -4.3623   -1.7705    0.0133 C   0  0
    3.0586   -0.4541    0.0074 C   0  0
   -1.8918   -4.6179    0.0293 C   0  0
   -0.6483   -3.9375    0.0249 C   0  0
   -3.0784   -3.9248    0.0250 C   0  0
    1.8224   -3.6829    0.0227 C   0  0
    4.3764    4.7984   -0.0058 C   0  0
    0.7376   -4.5162    0.0322 C   0  0
   -1.9180   -5.7575    0.0366 H   0  0
   -4.2082   -4.6643    0.0247 C   0  0
   -5.5014   -4.0046    0.0259 C   0  0
   -7.8003   -2.2780    0.0161 H   0  0
    1.8816    5.7512   -0.0181 H   0  0
   -7.7892    0.2826   -0.0044 H   0  0
    5.5809    4.0404   -0.0085 C   0  0
    5.5832   -1.7916   -0.0169 C   0  0
    4.2876   -2.5496   -0.0197 C   0  0
   -6.2514    2.4137   -0.0115 H   0  0
   -4.3108    3.4238   -0.0137 H   0  0
   -6.2014   -4.6046    0.0259 H   0  0
   -4.2082   -5.5643    0.0247 H   0  0
    0.7376   -5.4162    0.0322 H   0  0
    2.5224   -4.2829    0.0227 H   0  0
    4.2876   -3.4496   -0.0197 H   0  0
    6.3832   -2.2916   -0.0169 H   0  0
    7.6317   -0.0948   -0.0180 H   0  0
    7.6561    2.2316   -0.0258 H   0  0
    6.3809    4.4404   -0.0085 H   0  0
    4.3764    5.6984   -0.0058 H   0  0
   -0.6598    5.4809   -0.0254 H   0  0
   -2.7859    4.2267   -0.0189 H   0  0
M  END

> <TOTAL ENERGY>
BIOVIA, TYPE=DOUBLE, VERSION=1                                                  
 -1838.55768977

> <BINDING ENERGY>
BIOVIA, TYPE=DOUBLE, VERSION=1                                                  
   -15.52240016

> <HOMO ENERGY>
BIOVIA, TYPE=DOUBLE, VERSION=1                                                  
    -0.16439699

> <LUMO ENERGY>
BIOVIA, TYPE=DOUBLE, VERSION=1                                                  
    -0.11056570

> <LUMO-HOMO ENERGY>
BIOVIA, TYPE=DOUBLE, VERSION=1                                                  
     0.05383128

> <OPERATION STATUS>
BIOVIA, TYPE=STATUS, VERSION=1                                                  
SUCCESS

$$$$
