Materials Studio SDF calculation
TCVAMP81A 

 66  0  0  0  0  0              1 V2000
    0.9029   -1.2951    0.0000 C   0  0
   -0.3031    0.8641    0.0000 C   0  0
    3.3793   -1.3333    0.0000 C   0  0
    2.1647    0.8222    0.0000 C   0  0
    4.6380    0.7713    0.0000 C   0  0
   -0.3268   -0.5677    0.0000 C   0  0
    2.1430   -0.5990    0.0000 C   0  0
    0.9351    1.5555    0.0000 C   0  0
    4.5957   -0.6300    0.0000 C   0  0
    3.4092    1.5102    0.0000 C   0  0
   -4.0436   -1.2377    0.0000 C   0  0
   -5.2208    0.9007    0.0000 C   0  0
   -1.5624   -1.2677    0.0000 C   0  0
   -2.7738    0.8877    0.0000 C   0  0
   -5.2385   -0.4767    0.0000 C   0  0
   -2.7999   -0.5440    0.0000 C   0  0
   -3.9993    1.6141    0.0000 C   0  0
   -1.5306    1.5971    0.0000 C   0  0
   -1.5173    3.0248    0.0000 C   0  0
    0.9586    2.9858    0.0000 C   0  0
    3.4369    2.9350    0.0000 C   0  0
   -0.2590    3.7264    0.0000 C   0  0
    2.2149    3.6713    0.0000 C   0  0
   -0.3441   -3.4153    0.0000 C   0  0
    2.1334   -3.4475    0.0000 C   0  0
   -1.5746   -2.6951    0.0000 C   0  0
    0.8876   -2.7197    0.0000 C   0  0
    3.3334   -2.7526    0.0000 C   0  0
   -5.2494   -3.4403    0.0000 C   0  0
   -2.8156   -3.4000    0.0000 C   0  0
   -4.0579   -2.6923    0.0000 C   0  0
   -0.3558   -4.8576    0.0000 C   0  0
   -4.0361   -5.5348    0.0000 C   0  0
   -1.5681   -5.5278    0.0000 C   0  0
   -5.2377   -4.8384    0.0000 C   0  0
   -2.8091   -4.8367    0.0000 C   0  0
   -3.9601    3.0352    0.0000 C   0  0
   -2.7672    3.7118    0.0000 C   0  0
   -0.1794    5.1498    0.0000 C   0  0
    2.2553    5.0966    0.0000 C   0  0
    1.0253    5.8092    0.0000 C   0  0
    4.6858    3.6239    0.0000 C   0  0
    4.6909    5.0430    0.0000 C   0  0
    3.5130    5.7586    0.0000 C   0  0
    5.8735    1.4931    0.0000 C   0  0
    5.8945    2.8627    0.0000 C   0  0
   -4.0245   -6.6258    0.0000 H   0  0
   -1.5777   -6.6203    0.0000 H   0  0
    0.9032   -5.5576    0.0000 C   0  0
    2.0876   -4.8869    0.0000 C   0  0
    4.2749   -3.3066    0.0000 H   0  0
    5.5334   -1.1900    0.0000 H   0  0
    6.8071    0.9273    0.0000 H   0  0
    6.8464    3.3974    0.0000 H   0  0
    5.6517    5.5617    0.0000 H   0  0
    3.5304    6.8501    0.0000 H   0  0
    1.0513    6.9006    0.0000 H   0  0
   -1.0929    5.7411    0.0000 H   0  0
   -2.7858    4.7997    0.0000 H   0  0
   -4.9035    3.5845    0.0000 H   0  0
   -6.1585    1.4595    0.0000 H   0  0
   -6.2035   -0.9812    0.0000 H   0  0
   -6.2138   -2.9343    0.0000 H   0  0
   -6.1845   -5.3804    0.0000 H   0  0
    3.0343   -5.4306    0.0000 H   0  0
    0.8838   -6.6489    0.0000 H   0  0
M  END

> <TOTAL ENERGY>
BIOVIA, TYPE=DOUBLE, VERSION=1                                                  
 -1838.55069211

> <BINDING ENERGY>
BIOVIA, TYPE=DOUBLE, VERSION=1                                                  
   -15.51540250

> <HIRSHFELD CHARGE>
BIOVIA, TYPE=DOUBLE, ATOMISTIC, VERSION=1                                       
  1    -0.00096272
  2    -0.00242501
  3    -0.00266748
  4    -0.00094923
  5    -0.00151178
  6    -0.00142080
  7    -0.00040237
  8    -0.00178133
  9    -0.04417968
 10    -0.00000628
 11     0.00064793
 12    -0.04285338
 13    -0.00230056
 14     0.00205747
 15    -0.04358915
 16    -0.00030659
 17    -0.00059686
 18    -0.00028572
 19     0.00034861
 20    -0.00020541
 21     0.00044366
 22    -0.00019868
 23     0.00143034
 24    -0.00050739
 25    -0.00182749
 26    -0.00154820
 27    -0.00063252
 28    -0.04391727
 29    -0.04413127
 30     0.00109407
 31     0.00049925
 32    -0.00232305
 33    -0.04319046
 34    -0.04351816
 35    -0.04401034
 36    -0.00043020
 37    -0.04274753
 38    -0.04400971
 39    -0.04467388
 40    -0.00058489
 41    -0.04298815
 42    -0.00060419
 43    -0.04388394
 44    -0.04407345
 45    -0.04348320
 46    -0.04350969
 47     0.04518528
 48     0.04327776
 49    -0.04219718
 50    -0.04242288
 51     0.04331581
 52     0.04313550
 53     0.04596913
 54     0.04587627
 55     0.04560654
 56     0.04565554
 57     0.04588237
 58     0.04316012
 59     0.04366770
 60     0.04614107
 61     0.04597775
 62     0.04369377
 63     0.04207836
 64     0.04760971
 65     0.04658023
 66     0.04654043

> <HOMO ENERGY>
BIOVIA, TYPE=DOUBLE, VERSION=1                                                  
    -0.16220864

> <LUMO ENERGY>
BIOVIA, TYPE=DOUBLE, VERSION=1                                                  
    -0.11308735

> <LUMO-HOMO ENERGY>
BIOVIA, TYPE=DOUBLE, VERSION=1                                                  
     0.04912129

> <MULLIKEN CHARGE>
BIOVIA, TYPE=DOUBLE, ATOMISTIC, VERSION=1                                       
  1     0.02003350
  2     0.01039102
  3     0.08224984
  4     0.02275418
  5     0.08074230
  6     0.00517841
  7     0.00455263
  8     0.01096760
  9    -0.16824173
 10     0.01950803
 11     0.04112336
 12    -0.12432846
 13     0.01368594
 14     0.02698132
 15    -0.12015090
 16     0.01744412
 17     0.07924866
 18     0.01646577
 19     0.03746520
 20     0.01613354
 21     0.03781335
 22     0.03896747
 23     0.03150899
 24     0.01685569
 25     0.08098998
 26     0.02362545
 27     0.01558604
 28    -0.16655805
 29    -0.13348542
 30     0.01453056
 31     0.05973641
 32     0.08201406
 33    -0.12686344
 34    -0.15763475
 35    -0.08303563
 36     0.09453801
 37    -0.12244146
 38    -0.12196864
 39    -0.12492581
 40     0.07507493
 41    -0.11791352
 42     0.07166417
 43    -0.11734601
 44    -0.12222915
 45    -0.11734196
 46    -0.11249410
 47     0.05960463
 48     0.05705368
 49    -0.11126286
 50    -0.11281512
 51     0.05664622
 52     0.05630278
 53     0.06107511
 54     0.06096324
 55     0.06064141
 56     0.06067099
 57     0.06200035
 58     0.06675209
 59     0.06651324
 60     0.06217938
 61     0.06169331
 62     0.06646463
 63     0.06487939
 64     0.06634067
 65     0.06172958
 66     0.06169580

> <FUKUI MINUS (MULLIKEN)>
BIOVIA, TYPE=DOUBLE, ATOMISTIC, VERSION=1                                       
  1     0.00597722
  2     0.01004764
  3    -0.00034877
  4     0.00851485
  5     0.00028070
  6     0.00784540
  7     0.00530745
  8     0.00990263
  9     0.03295606
 10     0.01382833
 11     0.01573680
 12     0.01695843
 13     0.01540457
 14     0.00586029
 15     0.00335312
 16     0.00498169
 17     0.00283886
 18     0.00472728
 19     0.01018964
 20     0.00490292
 21     0.00551515
 22     0.01148350
 23     0.00605768
 24     0.01049146
 25     0.00538894
 26     0.00529232
 27     0.01083497
 28     0.02826580
 29     0.02631898
 30     0.00755752
 31     0.00357608
 32     0.00456562
 33     0.02483286
 34     0.02998909
 35     0.00642818
 36     0.00016668
 37     0.01371320
 38     0.00808842
 39     0.00691183
 40     0.00236883
 41     0.01550161
 42     0.01272852
 43     0.00763843
 44     0.01922712
 45     0.01233285
 46     0.00994464
 47     0.03203264
 48     0.03202048
 49     0.01168313
 50     0.01052737
 51     0.03086333
 52     0.03126596
 53     0.02684406
 54     0.02874529
 55     0.02790594
 56     0.02914195
 57     0.02774628
 58     0.02120232
 59     0.02159549
 60     0.02709978
 61     0.02818081
 62     0.02060494
 63     0.02800065
 64     0.03265836
 65     0.02835327
 66     0.02904263

> <FUKUI MINUS (HIRSHFELD)>
BIOVIA, TYPE=DOUBLE, ATOMISTIC, VERSION=1                                       
  1     0.00480309
  2     0.01032659
  3     0.01054832
  4     0.00908899
  5     0.01039181
  6     0.00931760
  7     0.00306547
  8     0.01046847
  9     0.03797015
 10     0.01269192
 11     0.01680964
 12     0.02443235
 13     0.01557717
 14     0.00401809
 15     0.01326316
 16     0.00658853
 17     0.01090857
 18     0.00445498
 19     0.01301959
 20     0.00485078
 21     0.00664847
 22     0.01395183
 23     0.00407155
 24     0.00986613
 25     0.01564840
 26     0.00516617
 27     0.01056440
 28     0.03397020
 29     0.03498464
 30     0.00451864
 31     0.00907626
 32     0.01521048
 33     0.03364177
 34     0.03579329
 35     0.02202211
 36     0.01090099
 37     0.02175663
 38     0.01696155
 39     0.01618324
 40     0.01088832
 41     0.02338117
 42     0.01995271
 43     0.01821513
 44     0.02750443
 45     0.02083147
 46     0.01969335
 47     0.01755072
 48     0.01726140
 49     0.02095576
 50     0.01996332
 51     0.01637942
 52     0.01704072
 53     0.01383177
 54     0.01495999
 55     0.01426641
 56     0.01593349
 57     0.01474088
 58     0.01069793
 59     0.01098973
 60     0.01426303
 61     0.01516724
 62     0.01017587
 63     0.01561750
 64     0.01705561
 65     0.01443662
 66     0.01488570

> <FUKUI PLUS (MULLIKEN)>
BIOVIA, TYPE=DOUBLE, ATOMISTIC, VERSION=1                                       
  1     0.00598293
  2     0.01063600
  3    -0.00118288
  4     0.00974652
  5    -0.00070510
  6     0.00722235
  7     0.00507181
  8     0.00945325
  9     0.03348571
 10     0.01341054
 11     0.01620399
 12     0.01617242
 13     0.01610025
 14     0.00580030
 15     0.00329623
 16     0.00439482
 17     0.00306338
 18     0.00449407
 19     0.00984665
 20     0.00464004
 21     0.00612544
 22     0.01170018
 23     0.00603715
 24     0.00950160
 25     0.00514020
 26     0.00488558
 27     0.01049553
 28     0.02895292
 29     0.02800780
 30     0.00778197
 31     0.00328099
 32     0.00492160
 33     0.02453680
 34     0.03021815
 35     0.00534219
 36     0.00015080
 37     0.01386341
 38     0.00790550
 39     0.00628500
 40     0.00213141
 41     0.01583368
 42     0.01237167
 43     0.00668399
 44     0.01947596
 45     0.01277291
 46     0.00945451
 47     0.03217773
 48     0.03218987
 49     0.01241227
 50     0.01138341
 51     0.03095427
 52     0.03114077
 53     0.02683475
 54     0.02893758
 55     0.02799727
 56     0.02918801
 57     0.02773560
 58     0.02124538
 59     0.02170311
 60     0.02711108
 61     0.02809616
 62     0.02048286
 63     0.02806203
 64     0.03297324
 65     0.02885130
 66     0.02953308

> <FUKUI PLUS (HIRSHFELD)>
BIOVIA, TYPE=DOUBLE, ATOMISTIC, VERSION=1                                       
  1     0.00507959
  2     0.01030379
  3     0.01085017
  4     0.00947160
  5     0.01081900
  6     0.00914471
  7     0.00337341
  8     0.01005747
  9     0.03684682
 10     0.01272638
 11     0.01639006
 12     0.02365906
 13     0.01535572
 14     0.00408434
 15     0.01350280
 16     0.00644979
 17     0.01109701
 18     0.00462653
 19     0.01270113
 20     0.00498660
 21     0.00688376
 22     0.01388366
 23     0.00412170
 24     0.00916282
 25     0.01552680
 26     0.00537522
 27     0.00990642
 28     0.03352533
 29     0.03504909
 30     0.00477403
 31     0.00946775
 32     0.01511643
 33     0.03308654
 34     0.03544485
 35     0.02239159
 36     0.01125287
 37     0.02151007
 38     0.01685282
 39     0.01584378
 40     0.01087651
 41     0.02309206
 42     0.01940637
 43     0.01826572
 44     0.02724224
 45     0.02029445
 46     0.01997446
 47     0.01772224
 48     0.01755438
 49     0.02177076
 50     0.02076816
 51     0.01664178
 52     0.01713428
 53     0.01387005
 54     0.01504739
 55     0.01421472
 56     0.01603887
 57     0.01483789
 58     0.01062299
 59     0.01097379
 60     0.01436529
 61     0.01509280
 62     0.01022089
 63     0.01609037
 64     0.01711722
 65     0.01490019
 66     0.01534169

> <FUKUI ZERO (MULLIKEN)>
BIOVIA, TYPE=DOUBLE, ATOMISTIC, VERSION=1                                       
  1     0.00598008
  2     0.01034182
  3    -0.00076583
  4     0.00913068
  5    -0.00021220
  6     0.00753387
  7     0.00518963
  8     0.00967794
  9     0.03322089
 10     0.01361943
 11     0.01597040
 12     0.01656542
 13     0.01575241
 14     0.00583030
 15     0.00332467
 16     0.00468826
 17     0.00295112
 18     0.00461068
 19     0.01001814
 20     0.00477148
 21     0.00582030
 22     0.01159184
 23     0.00604741
 24     0.00999653
 25     0.00526457
 26     0.00508895
 27     0.01066525
 28     0.02860936
 29     0.02716339
 30     0.00766975
 31     0.00342853
 32     0.00474361
 33     0.02468483
 34     0.03010362
 35     0.00588518
 36     0.00015874
 37     0.01378830
 38     0.00799696
 39     0.00659842
 40     0.00225012
 41     0.01566765
 42     0.01255009
 43     0.00716121
 44     0.01935154
 45     0.01255288
 46     0.00969957
 47     0.03210518
 48     0.03210517
 49     0.01204770
 50     0.01095539
 51     0.03090880
 52     0.03120337
 53     0.02683941
 54     0.02884143
 55     0.02795161
 56     0.02916498
 57     0.02774094
 58     0.02122385
 59     0.02164930
 60     0.02710543
 61     0.02813849
 62     0.02054390
 63     0.02803134
 64     0.03281580
 65     0.02860229
 66     0.02928785

> <FUKUI ZERO (HIRSHFELD)>
BIOVIA, TYPE=DOUBLE, ATOMISTIC, VERSION=1                                       
  1     0.00494134
  2     0.01031519
  3     0.01069924
  4     0.00928029
  5     0.01060540
  6     0.00923116
  7     0.00321944
  8     0.01026297
  9     0.03740848
 10     0.01270915
 11     0.01659985
 12     0.02404570
 13     0.01546645
 14     0.00405122
 15     0.01338298
 16     0.00651916
 17     0.01100279
 18     0.00454075
 19     0.01286036
 20     0.00491869
 21     0.00676612
 22     0.01391775
 23     0.00409662
 24     0.00951448
 25     0.01558760
 26     0.00527070
 27     0.01023541
 28     0.03374777
 29     0.03501686
 30     0.00464634
 31     0.00927200
 32     0.01516346
 33     0.03336416
 34     0.03561907
 35     0.02220685
 36     0.01107693
 37     0.02163335
 38     0.01690719
 39     0.01601351
 40     0.01088242
 41     0.02323662
 42     0.01967954
 43     0.01824042
 44     0.02737334
 45     0.02056296
 46     0.01983391
 47     0.01763648
 48     0.01740789
 49     0.02136326
 50     0.02036574
 51     0.01651060
 52     0.01708750
 53     0.01385091
 54     0.01500369
 55     0.01424056
 56     0.01598618
 57     0.01478938
 58     0.01066046
 59     0.01098176
 60     0.01431416
 61     0.01513002
 62     0.01019838
 63     0.01585394
 64     0.01708642
 65     0.01466840
 66     0.01511370

> <OPERATION STATUS>
BIOVIA, TYPE=STATUS, VERSION=1                                                  
SUCCESS

$$$$
