Materials Studio SDF calculation
TCVAMP81A 

 66  0  0  0  0  0              1 V2000
    1.1192    0.4983    0.0000 C   0  0
   -0.0949    2.6574    0.0000 C   0  0
    3.5930    0.4915    0.0000 C   0  0
    2.3808    2.6277    0.0000 C   0  0
    4.8282    2.6043    0.0000 C   0  0
   -0.1066    1.2231    0.0000 C   0  0
    2.3673    1.2070    0.0000 C   0  0
    1.1541    3.3542    0.0000 C   0  0
    4.8390    1.2031    0.0000 C   0  0
    3.6308    3.3322    0.0000 C   0  0
   -3.8196    0.5503    0.0000 C   0  0
   -5.0184    2.6808    0.0000 C   0  0
   -1.3458    0.5214    0.0000 C   0  0
   -2.5748    2.6811    0.0000 C   0  0
   -5.0528    1.2651    0.0000 C   0  0
   -2.5780    1.2577    0.0000 C   0  0
   -3.8228    3.3613    0.0000 C   0  0
   -1.3141    3.3924    0.0000 C   0  0
   -1.2485    4.8091    0.0000 C   0  0
    1.1817    4.7796    0.0000 C   0  0
    3.6182    4.7639    0.0000 C   0  0
   -0.0446    5.4815    0.0000 C   0  0
    2.4402    5.4589    0.0000 C   0  0
    2.4404    6.5506    0.0000 H   0  0
   -0.1312   -1.6290    0.0000 C   0  0
    2.3492   -1.6493    0.0000 C   0  0
   -1.3570   -0.9042    0.0000 C   0  0
    1.1094   -0.9253    0.0000 C   0  0
    3.5872   -0.9345    0.0000 C   0  0
   -5.0834   -1.5665    0.0000 C   0  0
   -2.6087   -1.6122    0.0000 C   0  0
   -6.2986   -0.8227    0.0000 C   0  0
   -3.8340   -0.8775    0.0000 C   0  0
   -6.2841    0.5477    0.0000 C   0  0
    1.0921   -3.7926    0.0000 C   0  0
    3.6035   -3.7405    0.0000 C   0  0
   -0.1414   -3.0651    0.0000 C   0  0
    2.3557   -3.0713    0.0000 C   0  0
    4.8001   -3.0513    0.0000 C   0  0
   -3.8953   -3.6861    0.0000 C   0  0
   -1.3855   -3.7733    0.0000 C   0  0
   -5.0780   -2.9814    0.0000 C   0  0
   -2.6354   -3.0318    0.0000 C   0  0
    4.8262   -1.6406    0.0000 C   0  0
   -0.1633   -5.8819    0.0000 C   0  0
    6.0543   -0.9080    0.0000 C   0  0
    1.0484   -5.1978    0.0000 C   0  0
    6.0619    0.4592    0.0000 C   0  0
   -1.3635   -5.1808    0.0000 C   0  0
    4.5750    5.2899    0.0000 H   0  0
    3.6361   -4.8283    0.0000 H   0  0
    5.7792    3.1423    0.0000 H   0  0
    1.9707   -5.7757    0.0000 H   0  0
    5.7461   -3.5964    0.0000 H   0  0
    7.0055    1.0082    0.0000 H   0  0
    6.9924   -1.4663    0.0000 H   0  0
   -0.1710   -6.9725    0.0000 H   0  0
   -2.2951   -5.7428    0.0000 H   0  0
   -3.9414   -4.7733    0.0000 H   0  0
   -0.0280    6.5730    0.0000 H   0  0
   -2.1663    5.3937    0.0000 H   0  0
   -3.8457    4.4492    0.0000 H   0  0
   -5.9626    3.2288    0.0000 H   0  0
   -6.0328   -3.5110    0.0000 H   0  0
   -7.2180    1.1128    0.0000 H   0  0
   -7.2447   -1.3675    0.0000 H   0  0
M  END

> <TOTAL ENERGY>
BIOVIA, TYPE=DOUBLE, VERSION=1                                                  
 -1838.55970737

> <BINDING ENERGY>
BIOVIA, TYPE=DOUBLE, VERSION=1                                                  
   -15.52441776

> <HIRSHFELD CHARGE>
BIOVIA, TYPE=DOUBLE, ATOMISTIC, VERSION=1                                       
  1    -0.00148340
  2    -0.00046527
  3    -0.00018659
  4    -0.00003919
  5    -0.04458297
  6    -0.00219203
  7    -0.00125465
  8     0.00060077
  9    -0.00104803
 10    -0.00108162
 11     0.00087660
 12    -0.04305059
 13    -0.00219641
 14     0.00005027
 15    -0.00034984
 16    -0.00090688
 17    -0.04398909
 18    -0.00028239
 19    -0.04428030
 20    -0.00072177
 21    -0.04297159
 22    -0.04327219
 23    -0.04307784
 24     0.04593200
 25    -0.00301758
 26    -0.00080371
 27    -0.00219155
 28    -0.00220894
 29     0.00077308
 30    -0.00017032
 31    -0.00118121
 32    -0.04312104
 33     0.00108020
 34    -0.04303743
 35     0.00123536
 36    -0.04367420
 37     0.00000911
 38     0.00024291
 39    -0.04313690
 40    -0.04359693
 41     0.00113838
 42    -0.04302963
 43     0.00011977
 44    -0.00061069
 45    -0.04289756
 46    -0.04292275
 47    -0.04347513
 48    -0.04277592
 49    -0.04359827
 50     0.04580475
 51     0.04292759
 52     0.04288994
 53     0.04243175
 54     0.04553859
 55     0.04600303
 56     0.04595009
 57     0.04779907
 58     0.04232289
 59     0.04304817
 60     0.04557932
 61     0.04273583
 62     0.04299899
 63     0.04564198
 64     0.04561458
 65     0.04591710
 66     0.04585961

> <HOMO ENERGY>
BIOVIA, TYPE=DOUBLE, VERSION=1                                                  
    -0.16907273

> <LUMO ENERGY>
BIOVIA, TYPE=DOUBLE, VERSION=1                                                  
    -0.10530328

> <LUMO-HOMO ENERGY>
BIOVIA, TYPE=DOUBLE, VERSION=1                                                  
     0.06376945

> <MULLIKEN CHARGE>
BIOVIA, TYPE=DOUBLE, ATOMISTIC, VERSION=1                                       
  1     0.00562155
  2     0.01259115
  3     0.02208466
  4     0.02138366
  5    -0.16365358
  6     0.00844439
  7     0.02583477
  8     0.03082151
  9     0.08052976
 10     0.08002579
 11     0.03358379
 12    -0.12140265
 13     0.00764960
 14     0.04042841
 15     0.07871945
 16     0.01689222
 17    -0.12327774
 18     0.04316535
 19    -0.12653219
 20     0.07461957
 21    -0.11525554
 22    -0.12064514
 23    -0.11603190
 24     0.05985993
 25     0.00941279
 26     0.01718899
 27     0.00592819
 28     0.00698621
 29     0.02941823
 30     0.07856583
 31     0.01954456
 32    -0.11615475
 33     0.03290197
 34    -0.11703149
 35     0.05966073
 36    -0.12323070
 37     0.00760211
 38     0.04524291
 39    -0.12382149
 40    -0.12242482
 41     0.06013826
 42    -0.12134311
 43     0.04442710
 44     0.07769214
 45    -0.08657179
 46    -0.11505407
 47    -0.13049595
 48    -0.11449486
 49    -0.12997801
 50     0.05976176
 51     0.06516266
 52     0.05479516
 53     0.06377884
 54     0.06078766
 55     0.05986141
 56     0.05978323
 57     0.06611077
 58     0.06367951
 59     0.06525445
 60     0.06058341
 61     0.06519459
 62     0.06489992
 63     0.06093672
 64     0.06077241
 65     0.05956069
 66     0.05951099

> <FUKUI MINUS (MULLIKEN)>
BIOVIA, TYPE=DOUBLE, ATOMISTIC, VERSION=1                                       
  1     0.01119354
  2     0.00574736
  3     0.00938414
  4     0.00941253
  5     0.03395282
  6     0.00622420
  7     0.01096737
  8     0.00691151
  9     0.00057945
 10    -0.00020728
 11     0.00576969
 12     0.01445043
 13     0.00830519
 14     0.01271915
 15     0.00683049
 16     0.00815291
 17     0.00559894
 18     0.01015097
 19     0.01403237
 20     0.01273923
 21     0.01688613
 22     0.01057227
 23     0.01037014
 24     0.03028839
 25     0.00627770
 26     0.00506461
 27     0.01549363
 28     0.01165673
 29     0.00601424
 30     0.00293911
 31     0.00656617
 32     0.01412464
 33     0.00586529
 34     0.01130109
 35     0.00561702
 36     0.00908149
 37     0.00586773
 38     0.01639746
 39     0.01450851
 40     0.00304691
 41     0.00335241
 42     0.01946996
 43     0.01806401
 44     0.00999008
 45     0.00708328
 46     0.01135056
 47     0.01936408
 48     0.01561112
 49     0.02196407
 50     0.03016858
 51     0.02387941
 52     0.03307280
 53     0.02549251
 54     0.03024794
 55     0.03004447
 56     0.03037077
 57     0.03126795
 58     0.02638025
 59     0.02145315
 60     0.02931536
 61     0.02471379
 62     0.02133546
 63     0.02843269
 64     0.02980264
 65     0.02830776
 66     0.02861062

> <FUKUI MINUS (HIRSHFELD)>
BIOVIA, TYPE=DOUBLE, ATOMISTIC, VERSION=1                                       
  1     0.01219129
  2     0.00501690
  3     0.00783951
  4     0.00796578
  5     0.03901918
  6     0.00570572
  7     0.01164673
  8     0.00716435
  9     0.01130405
 10     0.01033649
 11     0.00500554
 12     0.02241763
 13     0.00895749
 14     0.01533271
 15     0.01460898
 16     0.00859565
 17     0.01505479
 18     0.01409839
 19     0.02295740
 20     0.02039693
 21     0.02630829
 22     0.02020957
 23     0.02153953
 24     0.01562607
 25     0.00672120
 26     0.00591460
 27     0.01532031
 28     0.01143870
 29     0.00538005
 30     0.01135656
 31     0.00880771
 32     0.02362902
 33     0.00425403
 34     0.02143987
 35     0.01045531
 36     0.01936050
 37     0.00374911
 38     0.01861336
 39     0.02342897
 40     0.01372873
 41     0.00843259
 42     0.02714149
 43     0.01911696
 44     0.01825461
 45     0.02099645
 46     0.02234209
 47     0.02815728
 48     0.02527499
 49     0.03038639
 50     0.01580066
 51     0.01204609
 52     0.01807460
 53     0.01351309
 54     0.01590028
 55     0.01562302
 56     0.01568112
 57     0.01628253
 58     0.01428186
 59     0.01052657
 60     0.01511433
 61     0.01284698
 62     0.01057535
 63     0.01504965
 64     0.01612731
 65     0.01468649
 66     0.01501855

> <FUKUI PLUS (MULLIKEN)>
BIOVIA, TYPE=DOUBLE, ATOMISTIC, VERSION=1                                       
  1     0.00972685
  2     0.00531212
  3     0.00886007
  4     0.00831657
  5     0.03481725
  6     0.00597626
  7     0.01304083
  8     0.00809327
  9    -0.00098528
 10    -0.00167545
 11     0.00582839
 12     0.01345122
 13     0.00770980
 14     0.01279049
 15     0.00658227
 16     0.00817272
 17     0.00560454
 18     0.01065680
 19     0.01497301
 20     0.01253862
 21     0.01877711
 22     0.00834819
 23     0.01005975
 24     0.03056791
 25     0.00605955
 26     0.00428392
 27     0.01467548
 28     0.01175218
 29     0.00640638
 30     0.00298784
 31     0.00641741
 32     0.01491944
 33     0.00562530
 34     0.01201937
 35     0.00594841
 36     0.01113142
 37     0.00542281
 38     0.01731779
 39     0.01153758
 40     0.00219037
 41     0.00307623
 42     0.01883760
 43     0.01912389
 44     0.01126881
 45     0.00514002
 46     0.01086780
 47     0.02217263
 48     0.01765495
 49     0.02385788
 50     0.03018300
 51     0.02369309
 52     0.03260400
 53     0.02528071
 54     0.03026692
 55     0.03019895
 56     0.03061020
 57     0.03159165
 58     0.02644998
 59     0.02127355
 60     0.02934043
 61     0.02458011
 62     0.02110862
 63     0.02820462
 64     0.02943900
 65     0.02836387
 66     0.02857293

> <FUKUI PLUS (HIRSHFELD)>
BIOVIA, TYPE=DOUBLE, ATOMISTIC, VERSION=1                                       
  1     0.01107912
  2     0.00502600
  3     0.00795257
  4     0.00792778
  5     0.03701963
  6     0.00560168
  7     0.01207528
  8     0.00758142
  9     0.01154645
 10     0.01093854
 11     0.00523116
 12     0.02163032
 13     0.00847436
 14     0.01504377
 15     0.01442414
 16     0.00834038
 17     0.01517146
 18     0.01430048
 19     0.02299519
 20     0.01985478
 21     0.02601351
 22     0.01984246
 23     0.02222698
 24     0.01588899
 25     0.00651494
 26     0.00599259
 27     0.01423478
 28     0.01070641
 29     0.00601551
 30     0.01176658
 31     0.00880908
 32     0.02349071
 33     0.00442421
 34     0.02181261
 35     0.01104252
 36     0.02044687
 37     0.00390746
 38     0.01840875
 39     0.02236073
 40     0.01383311
 41     0.00925577
 42     0.02578583
 43     0.01863629
 44     0.01835031
 45     0.02129115
 46     0.02262179
 47     0.02876853
 48     0.02537819
 49     0.03024739
 50     0.01609219
 51     0.01264619
 52     0.01810792
 53     0.01433348
 54     0.01569223
 55     0.01601842
 56     0.01594645
 57     0.01629422
 58     0.01474352
 59     0.01040568
 60     0.01492256
 61     0.01311089
 62     0.01060389
 63     0.01484589
 64     0.01597250
 65     0.01489277
 66     0.01520261

> <FUKUI ZERO (MULLIKEN)>
BIOVIA, TYPE=DOUBLE, ATOMISTIC, VERSION=1                                       
  1     0.01046019
  2     0.00552974
  3     0.00912211
  4     0.00886455
  5     0.03438503
  6     0.00610023
  7     0.01200410
  8     0.00750239
  9    -0.00020292
 10    -0.00094136
 11     0.00579904
 12     0.01395083
 13     0.00800750
 14     0.01275482
 15     0.00670638
 16     0.00816282
 17     0.00560174
 18     0.01040388
 19     0.01450269
 20     0.01263893
 21     0.01783162
 22     0.00946023
 23     0.01021494
 24     0.03042815
 25     0.00616862
 26     0.00467427
 27     0.01508455
 28     0.01170445
 29     0.00621031
 30     0.00296348
 31     0.00649179
 32     0.01452204
 33     0.00574530
 34     0.01166023
 35     0.00578271
 36     0.01010645
 37     0.00564527
 38     0.01685762
 39     0.01302304
 40     0.00261864
 41     0.00321432
 42     0.01915378
 43     0.01859395
 44     0.01062944
 45     0.00611165
 46     0.01110918
 47     0.02076836
 48     0.01663303
 49     0.02291097
 50     0.03017579
 51     0.02378625
 52     0.03283840
 53     0.02538661
 54     0.03025743
 55     0.03012171
 56     0.03049048
 57     0.03142980
 58     0.02641512
 59     0.02136335
 60     0.02932789
 61     0.02464695
 62     0.02122204
 63     0.02831866
 64     0.02962082
 65     0.02833581
 66     0.02859178

> <FUKUI ZERO (HIRSHFELD)>
BIOVIA, TYPE=DOUBLE, ATOMISTIC, VERSION=1                                       
  1     0.01163520
  2     0.00502145
  3     0.00789604
  4     0.00794678
  5     0.03801940
  6     0.00565370
  7     0.01186101
  8     0.00737288
  9     0.01142525
 10     0.01063752
 11     0.00511835
 12     0.02202397
 13     0.00871592
 14     0.01518824
 15     0.01451656
 16     0.00846801
 17     0.01511313
 18     0.01419943
 19     0.02297629
 20     0.02012585
 21     0.02616090
 22     0.02002601
 23     0.02188326
 24     0.01575753
 25     0.00661807
 26     0.00595359
 27     0.01477754
 28     0.01107256
 29     0.00569778
 30     0.01156157
 31     0.00880839
 32     0.02355986
 33     0.00433912
 34     0.02162624
 35     0.01074892
 36     0.01990369
 37     0.00382828
 38     0.01851105
 39     0.02289485
 40     0.01378092
 41     0.00884418
 42     0.02646366
 43     0.01887662
 44     0.01830246
 45     0.02114380
 46     0.02248194
 47     0.02846290
 48     0.02532659
 49     0.03031689
 50     0.01594643
 51     0.01234614
 52     0.01809126
 53     0.01392328
 54     0.01579625
 55     0.01582072
 56     0.01581379
 57     0.01628838
 58     0.01451269
 59     0.01046612
 60     0.01501844
 61     0.01297894
 62     0.01058962
 63     0.01494777
 64     0.01604990
 65     0.01478963
 66     0.01511058

> <OPERATION STATUS>
BIOVIA, TYPE=STATUS, VERSION=1                                                  
SUCCESS

$$$$
