Materials Studio SDF calculation
TCVAMP81A 

 66  0  0  0  0  0              1 V2000
    1.2804    0.8944    0.0022 C   0  0
    0.0834    3.0643   -0.0149 C   0  0
    3.7565    0.8647    0.0143 C   0  0
    2.5427    3.0109    0.0120 C   0  0
    4.9815    2.9886    0.0285 C   0  0
    0.0558    1.6249   -0.0071 C   0  0
    2.5269    1.5846    0.0090 C   0  0
    1.3163    3.7087    0.0009 C   0  0
    4.9969    1.5672    0.0227 C   0  0
    3.7964    3.6886    0.0237 C   0  0
   -3.6513    0.9485   -0.0016 C   0  0
   -4.8732    3.0646   -0.0296 C   0  0
   -1.1821    0.9195   -0.0061 C   0  0
   -2.4124    3.0769   -0.0295 C   0  0
   -4.8958    1.6734   -0.0073 C   0  0
   -2.4204    1.6505   -0.0117 C   0  0
   -3.6620    3.7891   -0.0423 C   0  0
   -1.1815    3.8042   -0.0377 C   0  0
   -3.6536    5.2069   -0.0685 C   0  0
   -1.2352    5.2031   -0.0701 C   0  0
   -6.1292    0.9410    0.0085 C   0  0
   -2.4561    5.8971   -0.0849 C   0  0
   -6.1365   -0.4232    0.0275 C   0  0
   -7.0805   -0.9717    0.0406 H   0  0
    0.0322   -1.2329    0.0049 C   0  0
    2.5035   -1.2570    0.0063 C   0  0
   -1.1968   -0.5035    0.0028 C   0  0
    1.2662   -0.5347    0.0044 C   0  0
    3.7420   -0.5600    0.0105 C   0  0
   -4.9147   -1.1707    0.0288 C   0  0
   -2.4413   -1.2132    0.0118 C   0  0
    6.2114    0.8193    0.0251 C   0  0
   -3.6671   -0.4795    0.0132 C   0  0
    6.2039   -0.5523    0.0188 C   0  0
    1.2562   -3.3825    0.0035 C   0  0
    3.7357   -3.3994    0.0024 C   0  0
    0.0184   -2.6664    0.0070 C   0  0
    2.4947   -2.6780    0.0038 C   0  0
    4.9442   -2.6905    0.0062 C   0  0
   -3.7223   -3.2901    0.0423 C   0  0
   -1.2149   -3.3786    0.0124 C   0  0
   -4.9082   -2.5798    0.0461 C   0  0
   -2.4655   -2.6409    0.0217 C   0  0
    4.9770   -1.2863    0.0117 C   0  0
    0.0231   -5.4889    0.0012 C   0  0
    2.5093   -5.5073   -0.0034 C   0  0
    1.2600   -4.8102    0.0004 C   0  0
    3.6985   -4.8316   -0.0022 C   0  0
   -1.1716   -4.7940    0.0076 C   0  0
   -7.0655    1.5021    0.0057 H   0  0
    3.8014    4.7801    0.0276 H   0  0
    5.9351    3.5209    0.0362 H   0  0
    1.3658    4.7975    0.0045 H   0  0
    5.8867   -3.2431    0.0059 H   0  0
    4.6460   -5.3741   -0.0044 H   0  0
    2.4930   -6.5989   -0.0069 H   0  0
    0.0181   -6.5805   -0.0033 H   0  0
   -2.1000   -5.3626    0.0073 H   0  0
   -3.7709   -4.3775    0.0578 H   0  0
   -2.4515    6.9877   -0.1098 H   0  0
   -4.6071    5.7383   -0.0781 H   0  0
   -0.3145    5.7842   -0.0849 H   0  0
   -5.8172    3.6144   -0.0371 H   0  0
   -5.8625   -3.1105    0.0622 H   0  0
    7.1436   -1.1080    0.0198 H   0  0
    7.1588    1.3624    0.0314 H   0  0
M  END

> <TOTAL ENERGY>
BIOVIA, TYPE=DOUBLE, VERSION=1                                                  
 -1838.55056586

> <BINDING ENERGY>
BIOVIA, TYPE=DOUBLE, VERSION=1                                                  
   -15.51527625

> <HIRSHFELD CHARGE>
BIOVIA, TYPE=DOUBLE, ATOMISTIC, VERSION=1                                       
  1    -0.00011815
  2     0.00004230
  3     0.00046170
  4    -0.00095566
  5    -0.04363959
  6    -0.00150300
  7     0.00054376
  8    -0.04353323
  9    -0.00073068
 10    -0.04394853
 11     0.00022961
 12    -0.04415873
 13    -0.00268583
 14     0.00094262
 15    -0.00159549
 16    -0.00251072
 17     0.00001018
 18     0.00084129
 19    -0.04253384
 20    -0.04314544
 21    -0.04288325
 22    -0.04378921
 23    -0.04328404
 24     0.04627030
 25    -0.00236554
 26    -0.00077476
 27    -0.00224397
 28    -0.00122318
 29     0.00024284
 30    -0.00079067
 31    -0.00047339
 32    -0.04362426
 33     0.00085526
 34    -0.04347333
 35     0.00131446
 36    -0.00125722
 37    -0.00031983
 38     0.00026116
 39    -0.04447718
 40    -0.04442244
 41    -0.00016794
 42    -0.04357412
 43     0.00014374
 44    -0.00139855
 45    -0.04342620
 46    -0.04331927
 47    -0.00063851
 48    -0.04307971
 49    -0.04434036
 50     0.04645965
 51     0.04550905
 52     0.04578743
 53     0.04113194
 54     0.04308824
 55     0.04613881
 56     0.04613925
 57     0.04581087
 58     0.04306307
 59     0.04329478
 60     0.04787800
 61     0.04543041
 62     0.04223214
 63     0.04313360
 64     0.04558828
 65     0.04583816
 66     0.04586430

> <HOMO ENERGY>
BIOVIA, TYPE=DOUBLE, VERSION=1                                                  
    -0.16048708

> <LUMO ENERGY>
BIOVIA, TYPE=DOUBLE, VERSION=1                                                  
    -0.11504920

> <LUMO-HOMO ENERGY>
BIOVIA, TYPE=DOUBLE, VERSION=1                                                  
     0.04543789

> <MULLIKEN CHARGE>
BIOVIA, TYPE=DOUBLE, ATOMISTIC, VERSION=1                                       
  1     0.01805247
  2     0.04370674
  3     0.03390282
  4     0.07970657
  5    -0.11755014
  6     0.00044564
  7     0.01980494
  8    -0.16658766
  9     0.06925433
 10    -0.12259317
 11     0.01957150
 12    -0.15799276
 13     0.00679195
 14     0.01463496
 15     0.08498572
 16     0.02594727
 17     0.09576465
 18     0.06091482
 19    -0.12309384
 20    -0.13430829
 21    -0.11423015
 22    -0.08421571
 23    -0.11365411
 24     0.06096563
 25     0.01071042
 26     0.02587708
 27     0.00750675
 28     0.01010826
 29     0.02113388
 30     0.07458385
 31     0.01488040
 32    -0.11442131
 33     0.03103153
 34    -0.11806965
 35     0.03045866
 36     0.07916729
 37     0.01433902
 38     0.02137590
 39    -0.16565907
 40    -0.12804571
 41     0.04301845
 42    -0.12341171
 43     0.04010976
 44     0.07970212
 45    -0.12336884
 46    -0.11464989
 47     0.07392851
 48    -0.11627068
 49    -0.12713990
 50     0.06141862
 51     0.06133005
 52     0.06110217
 53     0.06341900
 54     0.05625821
 55     0.06122367
 56     0.06100844
 57     0.06190888
 58     0.06637787
 59     0.06616270
 60     0.06660519
 61     0.05978978
 62     0.06575270
 63     0.05671649
 64     0.06189414
 65     0.06099925
 66     0.06091353

> <FUKUI MINUS (MULLIKEN)>
BIOVIA, TYPE=DOUBLE, ATOMISTIC, VERSION=1                                       
  1     0.00537397
  2     0.00840869
  3     0.00558690
  4     0.00254177
  5     0.00865055
  6     0.00658611
  7     0.00788178
  8     0.02027790
  9     0.01414753
 10     0.01513358
 11     0.01075559
 12     0.03239026
 13     0.01193182
 14     0.00729179
 15     0.00195477
 16     0.01187251
 17    -0.00118658
 18     0.00783553
 19     0.02251797
 20     0.02078366
 21     0.01349152
 22     0.00764333
 23     0.01190810
 24     0.02973812
 25     0.00984673
 26     0.00672691
 27     0.00767735
 28     0.01248314
 29     0.00844167
 30     0.01033799
 31     0.00531766
 32     0.00775656
 33     0.00595809
 34     0.01791593
 35     0.00523803
 36     0.00048530
 37     0.00524798
 38     0.00972084
 39     0.02999940
 40     0.01266124
 41     0.01013737
 42     0.01149727
 43     0.01070091
 44    -0.00047232
 45     0.01238172
 46     0.00887783
 47     0.01006248
 48     0.01404163
 49     0.01039253
 50     0.02903393
 51     0.02629502
 52     0.02839208
 53     0.02181776
 54     0.03054547
 55     0.02764460
 56     0.02771466
 57     0.02819247
 58     0.02223780
 59     0.02372308
 60     0.03204304
 61     0.03188013
 62     0.02468382
 63     0.03263104
 64     0.02875683
 65     0.02894643
 66     0.02851043

> <FUKUI MINUS (HIRSHFELD)>
BIOVIA, TYPE=DOUBLE, ATOMISTIC, VERSION=1                                       
  1     0.00512534
  2     0.01173929
  3     0.00630450
  4     0.01034957
  5     0.01876327
  6     0.00661335
  7     0.00625609
  8     0.02521852
  9     0.02136209
 10     0.02309400
 11     0.00981163
 12     0.03792562
 13     0.01260493
 14     0.00562967
 15     0.01217121
 16     0.01244900
 17     0.00910027
 18     0.01123027
 19     0.03176762
 20     0.02966573
 21     0.02305606
 22     0.02217783
 23     0.02210181
 24     0.01554943
 25     0.01020000
 26     0.00751974
 27     0.00783301
 28     0.01334637
 29     0.00643980
 30     0.01829025
 31     0.00458085
 32     0.01873191
 33     0.00574272
 34     0.02624768
 35     0.00498804
 36     0.01040463
 37     0.00503902
 38     0.00803940
 39     0.03486549
 40     0.02156932
 41     0.01317310
 42     0.02058461
 43     0.01410323
 44     0.00941934
 45     0.02101263
 46     0.01887487
 47     0.01775135
 48     0.02245609
 49     0.01921624
 50     0.01502883
 51     0.01391370
 52     0.01462341
 53     0.01161608
 54     0.01670656
 55     0.01444995
 56     0.01426287
 57     0.01480683
 58     0.01142922
 59     0.01234960
 60     0.01684486
 61     0.01728119
 62     0.01346938
 63     0.01782082
 64     0.01494757
 65     0.01547029
 66     0.01459166

> <FUKUI PLUS (MULLIKEN)>
BIOVIA, TYPE=DOUBLE, ATOMISTIC, VERSION=1                                       
  1     0.00523901
  2     0.00769887
  3     0.00606522
  4     0.00171348
  5     0.00770872
  6     0.00677294
  7     0.00808252
  8     0.02380654
  9     0.01402141
 10     0.01446318
 11     0.00986976
 12     0.03249673
 13     0.01092644
 14     0.00685278
 15     0.00128699
 16     0.01270548
 17    -0.00205448
 18     0.00834181
 19     0.02410650
 20     0.02353874
 21     0.01454299
 22     0.00603212
 23     0.01182982
 24     0.02997510
 25     0.01011854
 26     0.00705847
 27     0.00712227
 28     0.01212025
 29     0.00797096
 30     0.01030082
 31     0.00511094
 32     0.00726058
 33     0.00636335
 34     0.01860189
 35     0.00507562
 36     0.00000183
 37     0.00499203
 38     0.00962774
 39     0.02967263
 40     0.01378735
 41     0.01066202
 42     0.00980991
 43     0.01068905
 44    -0.00108680
 45     0.01122966
 46     0.00866475
 47     0.01069093
 48     0.01452757
 49     0.01090845
 50     0.02912718
 51     0.02613024
 52     0.02844027
 53     0.02150316
 54     0.03026051
 55     0.02766429
 56     0.02775346
 57     0.02822043
 58     0.02207455
 59     0.02363601
 60     0.03238876
 61     0.03216468
 62     0.02463591
 63     0.03236710
 64     0.02880963
 65     0.02895863
 66     0.02856172

> <FUKUI PLUS (HIRSHFELD)>
BIOVIA, TYPE=DOUBLE, ATOMISTIC, VERSION=1                                       
  1     0.00536713
  2     0.01199247
  3     0.00647778
  4     0.01007436
  5     0.01860105
  6     0.00643490
  7     0.00639394
  8     0.02622889
  9     0.02102660
 10     0.02248995
 11     0.00969631
 12     0.03631867
 13     0.01151965
 14     0.00577229
 15     0.01259125
 16     0.01224952
 17     0.00972069
 18     0.01194540
 19     0.03177687
 20     0.03060835
 21     0.02289764
 22     0.02227246
 23     0.02249627
 24     0.01574720
 25     0.01024062
 26     0.00747247
 27     0.00744436
 28     0.01276887
 29     0.00627181
 30     0.01795374
 31     0.00452595
 32     0.01881838
 33     0.00597673
 34     0.02601000
 35     0.00521348
 36     0.01049143
 37     0.00504495
 38     0.00798420
 39     0.03354204
 40     0.02197131
 41     0.01317854
 42     0.02017260
 43     0.01403474
 44     0.00961969
 45     0.02072609
 46     0.01894265
 47     0.01759448
 48     0.02228214
 49     0.01946264
 50     0.01520342
 51     0.01372514
 52     0.01450958
 53     0.01236599
 54     0.01658483
 55     0.01454695
 56     0.01430249
 57     0.01470268
 58     0.01162263
 59     0.01262528
 60     0.01688423
 61     0.01760270
 62     0.01438030
 63     0.01771274
 64     0.01478634
 65     0.01556521
 66     0.01458248

> <FUKUI ZERO (MULLIKEN)>
BIOVIA, TYPE=DOUBLE, ATOMISTIC, VERSION=1                                       
  1     0.00530649
  2     0.00805378
  3     0.00582606
  4     0.00212762
  5     0.00817964
  6     0.00667952
  7     0.00798215
  8     0.02204222
  9     0.01408447
 10     0.01479838
 11     0.01031267
 12     0.03244350
 13     0.01142913
 14     0.00707228
 15     0.00162088
 16     0.01228900
 17    -0.00162053
 18     0.00808867
 19     0.02331224
 20     0.02216120
 21     0.01401725
 22     0.00683773
 23     0.01186896
 24     0.02985661
 25     0.00998264
 26     0.00689269
 27     0.00739981
 28     0.01230169
 29     0.00820631
 30     0.01031941
 31     0.00521430
 32     0.00750857
 33     0.00616072
 34     0.01825891
 35     0.00515682
 36     0.00024357
 37     0.00512000
 38     0.00967429
 39     0.02983602
 40     0.01322430
 41     0.01039970
 42     0.01065359
 43     0.01069498
 44    -0.00077956
 45     0.01180569
 46     0.00877129
 47     0.01037670
 48     0.01428460
 49     0.01065049
 50     0.02908056
 51     0.02621263
 52     0.02841618
 53     0.02166046
 54     0.03040299
 55     0.02765445
 56     0.02773406
 57     0.02820645
 58     0.02215617
 59     0.02367954
 60     0.03221590
 61     0.03202240
 62     0.02465986
 63     0.03249907
 64     0.02878323
 65     0.02895253
 66     0.02853608

> <FUKUI ZERO (HIRSHFELD)>
BIOVIA, TYPE=DOUBLE, ATOMISTIC, VERSION=1                                       
  1     0.00524624
  2     0.01186588
  3     0.00639114
  4     0.01021197
  5     0.01868216
  6     0.00652413
  7     0.00632502
  8     0.02572370
  9     0.02119435
 10     0.02279198
 11     0.00975397
 12     0.03712215
 13     0.01206229
 14     0.00570098
 15     0.01238123
 16     0.01234926
 17     0.00941048
 18     0.01158784
 19     0.03177224
 20     0.03013704
 21     0.02297685
 22     0.02222514
 23     0.02229904
 24     0.01564831
 25     0.01022031
 26     0.00749610
 27     0.00763868
 28     0.01305762
 29     0.00635580
 30     0.01812200
 31     0.00455340
 32     0.01877514
 33     0.00585973
 34     0.02612884
 35     0.00510076
 36     0.01044803
 37     0.00504198
 38     0.00801180
 39     0.03420377
 40     0.02177032
 41     0.01317582
 42     0.02037860
 43     0.01406899
 44     0.00951951
 45     0.02086936
 46     0.01890876
 47     0.01767291
 48     0.02236911
 49     0.01933944
 50     0.01511613
 51     0.01381942
 52     0.01456649
 53     0.01199104
 54     0.01664569
 55     0.01449845
 56     0.01428268
 57     0.01475475
 58     0.01152593
 59     0.01248744
 60     0.01686455
 61     0.01744194
 62     0.01392484
 63     0.01776678
 64     0.01486696
 65     0.01551775
 66     0.01458707

> <OPERATION STATUS>
BIOVIA, TYPE=STATUS, VERSION=1                                                  
SUCCESS

$$$$
