Materials Studio SDF calculation
TCVAMP81A 

 66  0  0  0  0  0              1 V2000
    1.6387    1.0956    0.0060 C   0  0
    0.4299    3.2682   -0.0074 C   0  0
    4.1307    1.0733    0.0149 C   0  0
    2.8898    3.2181    0.0094 C   0  0
    5.3179    3.2166    0.0210 C   0  0
    0.4116    1.8245   -0.0016 C   0  0
    2.8892    1.7851    0.0099 C   0  0
    1.6543    3.9156    0.0010 C   0  0
    5.3247    1.8153    0.0202 C   0  0
    4.1193    3.9171    0.0153 C   0  0
   -3.3003    1.1380   -0.0075 C   0  0
   -4.5353    3.2465   -0.0278 C   0  0
   -0.8273    1.1221   -0.0025 C   0  0
   -2.0693    3.2724   -0.0208 C   0  0
   -4.5500    1.8567   -0.0150 C   0  0
   -2.0701    1.8446   -0.0094 C   0  0
   -3.3225    3.9778   -0.0322 C   0  0
   -0.8414    4.0036   -0.0229 C   0  0
   -3.3213    5.3949   -0.0471 C   0  0
   -0.8987    5.4029   -0.0454 C   0  0
   -5.7815    1.1119   -0.0135 C   0  0
   -2.1244    6.0912   -0.0578 C   0  0
   -5.7845   -0.2520   -0.0036 C   0  0
   -6.7730   -0.8198   -0.0002 H   0  0
    0.3881   -1.0289    0.0080 C   0  0
    2.8603   -1.0651    0.0120 C   0  0
   -0.8399   -0.3007    0.0038 C   0  0
    1.6250   -0.3360    0.0090 C   0  0
    4.1117   -0.3830    0.0138 C   0  0
   -4.5557   -1.0002    0.0025 C   0  0
   -2.0842   -1.0068    0.0048 C   0  0
   -2.1586   -5.2684    0.0173 C   0  0
   -3.3107   -0.2880    0.0002 C   0  0
   -3.3343   -4.5679    0.0191 C   0  0
    1.5838   -3.1911    0.0121 C   0  0
    4.0469   -3.2400    0.0120 C   0  0
    0.3649   -2.4631    0.0110 C   0  0
    2.8303   -2.4964    0.0121 C   0  0
    5.2711   -2.5358    0.0121 C   0  0
   -3.3478   -3.1330    0.0105 C   0  0
   -0.8745   -3.1587    0.0125 C   0  0
   -4.5478   -2.4003    0.0078 C   0  0
   -2.1002   -2.4318    0.0097 C   0  0
    5.2987   -1.1524    0.0131 C   0  0
    0.3235   -5.2950    0.0139 C   0  0
    2.8027   -5.3390    0.0123 C   0  0
    1.5590   -4.6267    0.0127 C   0  0
    3.9979   -4.6711    0.0119 C   0  0
   -0.8914   -4.5934    0.0149 C   0  0
   -6.7675    1.6840   -0.0208 H   0  0
    4.1269    5.0570    0.0152 H   0  0
    6.3024    3.7914    0.0265 H   0  0
    1.6968    5.0548    0.0013 H   0  0
    6.2574   -3.1073    0.0113 H   0  0
    4.9771   -5.2549    0.0114 H   0  0
    2.7868   -6.4789    0.0123 H   0  0
    0.2919   -6.4346    0.0140 H   0  0
    6.3147    1.2500    0.0239 H   0  0
    6.3140   -0.6340    0.0133 H   0  0
   -2.1282    7.2310   -0.0770 H   0  0
   -4.3105    5.9617   -0.0501 H   0  0
    0.0817    5.9845   -0.0537 H   0  0
   -5.5164    3.8269   -0.0351 H   0  0
   -5.5488   -2.9458    0.0100 H   0  0
   -4.3293   -5.1243    0.0276 H   0  0
   -2.1742   -6.4083    0.0178 H   0  0
M  END

> <TOTAL ENERGY>
BIOVIA, TYPE=DOUBLE, VERSION=1                                                  
 -1838.54744052

> <BINDING ENERGY>
BIOVIA, TYPE=DOUBLE, VERSION=1                                                  
   -15.51215091

> <HOMO ENERGY>
BIOVIA, TYPE=DOUBLE, VERSION=1                                                  
    -0.16286261

> <LUMO ENERGY>
BIOVIA, TYPE=DOUBLE, VERSION=1                                                  
    -0.11311813

> <LUMO-HOMO ENERGY>
BIOVIA, TYPE=DOUBLE, VERSION=1                                                  
     0.04974449

> <OPERATION STATUS>
BIOVIA, TYPE=STATUS, VERSION=1                                                  
SUCCESS

$$$$
