Materials Studio SDF calculation
TCVAMP81A 

 66  0  0  0  0  0              1 V2000
   -0.6213    1.7902    0.0000 C   0  0
    5.5648   -0.3447    0.0000 C   0  0
    1.8528    1.7789    0.0000 C   0  0
    0.6397    3.9267    0.0000 C   0  0
    3.0874    3.9246    0.0000 C   0  0
   -1.8523    2.5118    0.0000 C   0  0
    0.6222    2.4924    0.0000 C   0  0
    6.7769    0.3915    0.0000 C   0  0
    3.0845    2.4909    0.0000 C   0  0
    1.8636    4.6096    0.0000 C   0  0
   -5.5441    1.7677    0.0000 C   0  0
   -0.6088    4.6194    0.0000 C   0  0
   -3.0972    1.7982    0.0000 C   0  0
   -1.7969    3.9410    0.0000 C   0  0
   -4.3614    2.4627    0.0000 C   0  0
    4.3219    0.3536    0.0000 C   0  0
    4.3201    1.7810    0.0000 C   0  0
    6.7718    1.7705    0.0000 C   0  0
    5.5544    2.4962    0.0000 C   0  0
   -1.8518   -0.3464    0.0000 C   0  0
    0.6191   -0.3580    0.0000 C   0  0
   -3.0879    0.3687    0.0000 C   0  0
   -0.6191    0.3580    0.0000 C   0  0
    1.8518    0.3464    0.0000 C   0  0
   -6.7769   -0.3915    0.0000 C   0  0
   -4.3219   -0.3536    0.0000 C   0  0
   -5.5648    0.3447    0.0000 C   0  0
   -0.6222   -2.4924    0.0000 C   0  0
    1.8523   -2.5118    0.0000 C   0  0
   -1.8528   -1.7789    0.0000 C   0  0
    0.6213   -1.7902    0.0000 C   0  0
    3.0972   -1.7982    0.0000 C   0  0
   -5.5544   -2.4962    0.0000 C   0  0
   -3.0845   -2.4909    0.0000 C   0  0
   -6.7718   -1.7705    0.0000 C   0  0
   -4.3201   -1.7810    0.0000 C   0  0
    3.0879   -0.3687    0.0000 C   0  0
   -1.8636   -4.6096    0.0000 C   0  0
   -0.6397   -3.9267    0.0000 C   0  0
   -3.0874   -3.9246    0.0000 C   0  0
    1.7969   -3.9410    0.0000 C   0  0
    4.3427    4.6128    0.0000 C   0  0
    0.6088   -4.6194    0.0000 C   0  0
   -1.8628   -5.7018    0.0000 H   0  0
   -4.3427   -4.6128    0.0000 C   0  0
   -5.5268   -3.9251    0.0000 C   0  0
   -7.7135   -2.3230    0.0000 H   0  0
    1.8628    5.7018    0.0000 H   0  0
   -7.7222    0.1548    0.0000 H   0  0
    5.5268    3.9251    0.0000 C   0  0
    5.5441   -1.7677    0.0000 C   0  0
    4.3614   -2.4627    0.0000 C   0  0
   -6.4955    2.3034    0.0000 H   0  0
   -4.3984    3.5503    0.0000 H   0  0
   -6.4780   -4.4612    0.0000 H   0  0
   -4.3357   -5.7041    0.0000 H   0  0
    0.5994   -5.7107    0.0000 H   0  0
    2.7214   -4.5149    0.0000 H   0  0
    4.3984   -3.5503    0.0000 H   0  0
    6.4955   -2.3034    0.0000 H   0  0
    7.7222   -0.1548    0.0000 H   0  0
    7.7135    2.3230    0.0000 H   0  0
    6.4780    4.4612    0.0000 H   0  0
    4.3357    5.7041    0.0000 H   0  0
   -0.5994    5.7107    0.0000 H   0  0
   -2.7214    4.5149    0.0000 H   0  0
M  END

> <TOTAL ENERGY>
BIOVIA, TYPE=DOUBLE, VERSION=1                                                  
 -1838.55769185

> <BINDING ENERGY>
BIOVIA, TYPE=DOUBLE, VERSION=1                                                  
   -15.52240224

> <HIRSHFELD CHARGE>
BIOVIA, TYPE=DOUBLE, ATOMISTIC, VERSION=1                                       
  1    -0.00059290
  2    -0.00079694
  3    -0.00065008
  4    -0.00169086
  5    -0.00128351
  6    -0.00048681
  7     0.00050046
  8    -0.04404164
  9     0.00026341
 10    -0.04429348
 11    -0.04287634
 12    -0.04263580
 13    -0.00014429
 14    -0.04427463
 15    -0.04463618
 16     0.00138542
 17     0.00067132
 18    -0.04394875
 19    -0.00055711
 20    -0.00190569
 21    -0.00192223
 22    -0.00032386
 23    -0.00192223
 24    -0.00190569
 25    -0.04404164
 26     0.00138542
 27    -0.00079694
 28     0.00050047
 29    -0.00048680
 30    -0.00065008
 31    -0.00059293
 32    -0.00014429
 33    -0.00055711
 34     0.00026341
 35    -0.04394875
 36     0.00067132
 37    -0.00032385
 38    -0.04429348
 39    -0.00169086
 40    -0.00128351
 41    -0.04427463
 42    -0.04359817
 43    -0.04263580
 44     0.04333437
 45    -0.04359817
 46    -0.04337983
 47     0.04567690
 48     0.04333437
 49     0.04556101
 50    -0.04337983
 51    -0.04287634
 52    -0.04463618
 53     0.04588034
 54     0.04332978
 55     0.04595212
 56     0.04598223
 57     0.04615714
 58     0.04352130
 59     0.04332978
 60     0.04588034
 61     0.04556101
 62     0.04567690
 63     0.04595212
 64     0.04598223
 65     0.04615714
 66     0.04352130

> <HOMO ENERGY>
BIOVIA, TYPE=DOUBLE, VERSION=1                                                  
    -0.16439734

> <LUMO ENERGY>
BIOVIA, TYPE=DOUBLE, VERSION=1                                                  
    -0.11056592

> <LUMO-HOMO ENERGY>
BIOVIA, TYPE=DOUBLE, VERSION=1                                                  
     0.05383141

> <MULLIKEN CHARGE>
BIOVIA, TYPE=DOUBLE, ATOMISTIC, VERSION=1                                       
  1     0.01217122
  2     0.07636051
  3     0.02445331
  4     0.07813968
  5     0.07827513
  6     0.03752209
  7     0.01615879
  8    -0.12093402
  9     0.02171792
 10    -0.16529068
 11    -0.11935132
 12    -0.11874211
 13     0.03792315
 14    -0.12178631
 15    -0.12455690
 16     0.03281836
 17     0.03680243
 18    -0.11829531
 19     0.07366153
 20     0.01293167
 21     0.00814608
 22     0.01592722
 23     0.00814604
 24     0.01293166
 25    -0.12093402
 26     0.03281836
 27     0.07636052
 28     0.01615881
 29     0.03752211
 30     0.02445329
 31     0.01217120
 32     0.03792314
 33     0.07366153
 34     0.02171792
 35    -0.11829531
 36     0.03680244
 37     0.01592721
 38    -0.16529068
 39     0.07813967
 40     0.07827513
 41    -0.12178632
 42    -0.11675228
 43    -0.11874211
 44     0.05601303
 45    -0.11675227
 46    -0.11405287
 47     0.06066411
 48     0.05601303
 49     0.06039341
 50    -0.11405287
 51    -0.11935131
 52    -0.12455690
 53     0.06219382
 54     0.06633595
 55     0.06116032
 56     0.06089353
 57     0.06210578
 58     0.06699279
 59     0.06633595
 60     0.06219382
 61     0.06039341
 62     0.06066411
 63     0.06116032
 64     0.06089353
 65     0.06210578
 66     0.06699279

> <FUKUI MINUS (MULLIKEN)>
BIOVIA, TYPE=DOUBLE, ATOMISTIC, VERSION=1                                       
  1     0.00470129
  2     0.00462812
  3     0.00775584
  4    -0.00028979
  5     0.00018855
  6     0.01725653
  7     0.00832613
  8     0.01643940
  9     0.01116225
 10     0.03264457
 11     0.01639204
 12     0.01860279
 13     0.00980331
 14     0.00780058
 15     0.00866741
 16     0.00604607
 17     0.00557128
 18     0.00979509
 19     0.01200237
 20     0.01368552
 21     0.00816627
 22     0.00579885
 23     0.00816667
 24     0.01368565
 25     0.01643939
 26     0.00604606
 27     0.00462810
 28     0.00832589
 29     0.01725631
 30     0.00775595
 31     0.00470148
 32     0.00980338
 33     0.01200240
 34     0.01116231
 35     0.00979508
 36     0.00557125
 37     0.00579889
 38     0.03264457
 39    -0.00028969
 40     0.00018855
 41     0.00780069
 42     0.01408861
 43     0.01860282
 44     0.03161768
 45     0.01408858
 46     0.00993915
 47     0.02867640
 48     0.03161768
 49     0.02904417
 50     0.00993915
 51     0.01639198
 52     0.00866746
 53     0.02920470
 54     0.02195544
 55     0.02900934
 56     0.02784105
 57     0.02970085
 58     0.02377778
 59     0.02195544
 60     0.02920471
 61     0.02904417
 62     0.02867639
 63     0.02900934
 64     0.02784105
 65     0.02970086
 66     0.02377779

> <FUKUI MINUS (HIRSHFELD)>
BIOVIA, TYPE=DOUBLE, ATOMISTIC, VERSION=1                                       
  1     0.00502496
  2     0.01313079
  3     0.00884864
  4     0.00994545
  5     0.01015038
  6     0.02024003
  7     0.00598333
  8     0.02521784
  9     0.00956932
 10     0.03781109
 11     0.02492023
 12     0.02698754
 13     0.01291150
 14     0.01811454
 15     0.01819657
 16     0.00448534
 17     0.00591830
 18     0.01991137
 19     0.01977082
 20     0.01420327
 21     0.00836004
 22     0.00574275
 23     0.00836010
 24     0.01420325
 25     0.02521784
 26     0.00448534
 27     0.01313080
 28     0.00598324
 29     0.02023995
 30     0.00884862
 31     0.00502523
 32     0.01291149
 33     0.01977081
 34     0.00956932
 35     0.01991137
 36     0.00591830
 37     0.00574274
 38     0.03781109
 39     0.00994543
 40     0.01015039
 41     0.01811452
 42     0.02285781
 43     0.02698753
 44     0.01736149
 45     0.02285782
 46     0.02005891
 47     0.01486119
 48     0.01736149
 49     0.01557528
 50     0.02005890
 51     0.02492024
 52     0.01819658
 53     0.01553461
 54     0.01113955
 55     0.01503643
 56     0.01449742
 57     0.01572397
 58     0.01197723
 59     0.01113955
 60     0.01553461
 61     0.01557529
 62     0.01486119
 63     0.01503643
 64     0.01449742
 65     0.01572397
 66     0.01197722

> <FUKUI PLUS (MULLIKEN)>
BIOVIA, TYPE=DOUBLE, ATOMISTIC, VERSION=1                                       
  1     0.00423320
  2     0.00453581
  3     0.00834038
  4    -0.00138279
  5    -0.00072856
  6     0.01841228
  7     0.00851373
  8     0.01567876
  9     0.01073387
 10     0.03328183
 11     0.01700305
 12     0.01971360
 13     0.00894761
 14     0.00632367
 15     0.00849974
 16     0.00615665
 17     0.00575681
 18     0.00876867
 19     0.01209993
 20     0.01452500
 21     0.00831331
 22     0.00539129
 23     0.00831291
 24     0.01452487
 25     0.01567876
 26     0.00615666
 27     0.00453583
 28     0.00851397
 29     0.01841250
 30     0.00834027
 31     0.00423301
 32     0.00894754
 33     0.01209991
 34     0.01073381
 35     0.00876868
 36     0.00575683
 37     0.00539125
 38     0.03328183
 39    -0.00138289
 40    -0.00072855
 41     0.00632357
 42     0.01486953
 43     0.01971357
 44     0.03151662
 45     0.01486956
 46     0.00975001
 47     0.02888130
 48     0.03151661
 49     0.02915821
 50     0.00975001
 51     0.01700311
 52     0.00849970
 53     0.02946787
 54     0.02221724
 55     0.02929656
 56     0.02797063
 57     0.02976223
 58     0.02399227
 59     0.02221725
 60     0.02946787
 61     0.02915822
 62     0.02888131
 63     0.02929657
 64     0.02797063
 65     0.02976222
 66     0.02399225

> <FUKUI PLUS (HIRSHFELD)>
BIOVIA, TYPE=DOUBLE, ATOMISTIC, VERSION=1                                       
  1     0.00538479
  2     0.01307943
  3     0.00906266
  4     0.01005707
  5     0.01062721
  6     0.02005438
  7     0.00621000
  8     0.02473517
  9     0.00939149
 10     0.03663882
 11     0.02512782
 12     0.02656406
 13     0.01281372
 14     0.01778503
 15     0.01788841
 16     0.00449542
 17     0.00601939
 18     0.02004098
 19     0.01926227
 20     0.01423935
 21     0.00857637
 22     0.00607995
 23     0.00857631
 24     0.01423936
 25     0.02473517
 26     0.00449542
 27     0.01307942
 28     0.00621010
 29     0.02005446
 30     0.00906268
 31     0.00538451
 32     0.01281373
 33     0.01926228
 34     0.00939149
 35     0.02004098
 36     0.00601938
 37     0.00607996
 38     0.03663882
 39     0.01005708
 40     0.01062720
 41     0.01778504
 42     0.02254728
 43     0.02656407
 44     0.01753391
 45     0.02254728
 46     0.02058661
 47     0.01485075
 48     0.01753391
 49     0.01559411
 50     0.02058661
 51     0.02512781
 52     0.01788841
 53     0.01587109
 54     0.01116712
 55     0.01522490
 56     0.01468542
 57     0.01599257
 58     0.01189981
 59     0.01116712
 60     0.01587109
 61     0.01559411
 62     0.01485075
 63     0.01522490
 64     0.01468542
 65     0.01599257
 66     0.01189982

> <FUKUI ZERO (MULLIKEN)>
BIOVIA, TYPE=DOUBLE, ATOMISTIC, VERSION=1                                       
  1     0.00446725
  2     0.00458196
  3     0.00804811
  4    -0.00083629
  5    -0.00027000
  6     0.01783441
  7     0.00841993
  8     0.01605908
  9     0.01094806
 10     0.03296320
 11     0.01669754
 12     0.01915820
 13     0.00937546
 14     0.00706213
 15     0.00858358
 16     0.00610136
 17     0.00566404
 18     0.00928188
 19     0.01205115
 20     0.01410526
 21     0.00823979
 22     0.00559507
 23     0.00823979
 24     0.01410526
 25     0.01605908
 26     0.00610136
 27     0.00458196
 28     0.00841993
 29     0.01783441
 30     0.00804811
 31     0.00446725
 32     0.00937546
 33     0.01205115
 34     0.01094806
 35     0.00928188
 36     0.00566404
 37     0.00559507
 38     0.03296320
 39    -0.00083629
 40    -0.00027000
 41     0.00706213
 42     0.01447907
 43     0.01915820
 44     0.03156715
 45     0.01447907
 46     0.00984458
 47     0.02877885
 48     0.03156715
 49     0.02910119
 50     0.00984458
 51     0.01669754
 52     0.00858358
 53     0.02933629
 54     0.02208634
 55     0.02915295
 56     0.02790584
 57     0.02973154
 58     0.02388502
 59     0.02208634
 60     0.02933629
 61     0.02910119
 62     0.02877885
 63     0.02915295
 64     0.02790584
 65     0.02973154
 66     0.02388502

> <FUKUI ZERO (HIRSHFELD)>
BIOVIA, TYPE=DOUBLE, ATOMISTIC, VERSION=1                                       
  1     0.00520487
  2     0.01310511
  3     0.00895565
  4     0.01000126
  5     0.01038879
  6     0.02014720
  7     0.00609667
  8     0.02497650
  9     0.00948040
 10     0.03722495
 11     0.02502403
 12     0.02677580
 13     0.01286261
 14     0.01794978
 15     0.01804249
 16     0.00449038
 17     0.00596884
 18     0.01997617
 19     0.01951655
 20     0.01422131
 21     0.00846820
 22     0.00591135
 23     0.00846820
 24     0.01422131
 25     0.02497650
 26     0.00449038
 27     0.01310511
 28     0.00609667
 29     0.02014720
 30     0.00895565
 31     0.00520487
 32     0.01286261
 33     0.01951655
 34     0.00948040
 35     0.01997617
 36     0.00596884
 37     0.00591135
 38     0.03722495
 39     0.01000126
 40     0.01038879
 41     0.01794978
 42     0.02270255
 43     0.02677580
 44     0.01744770
 45     0.02270255
 46     0.02032276
 47     0.01485597
 48     0.01744770
 49     0.01558470
 50     0.02032276
 51     0.02502403
 52     0.01804249
 53     0.01570285
 54     0.01115333
 55     0.01513066
 56     0.01459142
 57     0.01585827
 58     0.01193852
 59     0.01115333
 60     0.01570285
 61     0.01558470
 62     0.01485597
 63     0.01513066
 64     0.01459142
 65     0.01585827
 66     0.01193852

> <OPERATION STATUS>
BIOVIA, TYPE=STATUS, VERSION=1                                                  
SUCCESS

$$$$
