Materials Studio SDF calculation
TCVAMP81A 

 66  0  0  0  0  0              1 V2000
    0.7117    0.0000    0.7631 C   0  0
    2.8615    0.0000   -0.4605 C   0  0
    0.7118    0.0000    3.2384 C   0  0
    2.8437    0.0000    2.0170 C   0  0
    2.8253    0.0000    4.4660 C   0  0
    1.4244    0.0000   -0.4698 C   0  0
    1.4218    0.0000    2.0083 C   0  0
    3.5629    0.0000    0.7865 C   0  0
    1.4278    0.0000    4.4817 C   0  0
    3.5509    0.0000    3.2629 C   0  0
    0.7304    0.0000   -4.1873 C   0  0
    2.8573    0.0000   -5.3767 C   0  0
    0.7141    0.0000   -1.7039 C   0  0
    2.8711    0.0000   -2.9426 C   0  0
    1.4646    0.0000   -5.3828 C   0  0
    1.4386    0.0000   -2.9456 C   0  0
    3.5523    0.0000   -4.1748 C   0  0
    3.5895    0.0000   -1.6788 C   0  0
    5.0056    0.0000   -1.6200 C   0  0
    4.9890    0.0000    0.8093 C   0  0
    4.9814    0.0000    3.2459 C   0  0
    5.6852    0.0000   -0.4196 C   0  0
    5.6726    0.0000    2.0647 C   0  0
    6.7642    0.0000    2.0611 H   0  0
   -1.4244    0.0000   -0.4698 C   0  0
   -1.4218    0.0000    2.0083 C   0  0
   -0.7141    0.0000   -1.7039 C   0  0
   -0.7117    0.0000    0.7631 C   0  0
   -0.7118    0.0000    3.2384 C   0  0
   -1.4646    0.0000   -5.3828 C   0  0
   -1.4386    0.0000   -2.9456 C   0  0
    0.6822    0.0000    5.7083 C   0  0
   -0.7304    0.0000   -4.1873 C   0  0
   -0.6822    0.0000    5.7083 C   0  0
   -3.5629    0.0000    0.7865 C   0  0
   -3.5509    0.0000    3.2629 C   0  0
   -2.8615    0.0000   -0.4605 C   0  0
   -2.8437    0.0000    2.0170 C   0  0
   -2.8253    0.0000    4.4660 C   0  0
   -3.5523    0.0000   -4.1748 C   0  0
   -3.5895    0.0000   -1.6788 C   0  0
   -2.8573    0.0000   -5.3767 C   0  0
   -2.8711    0.0000   -2.9426 C   0  0
   -1.4278    0.0000    4.4817 C   0  0
   -5.6852    0.0000   -0.4196 C   0  0
   -5.6726    0.0000    2.0647 C   0  0
   -4.9890    0.0000    0.8093 C   0  0
   -4.9814    0.0000    3.2459 C   0  0
   -5.0056    0.0000   -1.6200 C   0  0
    5.5112    0.0000    4.2005 H   0  0
    0.9528    0.0000   -6.3434 H   0  0
    3.3684    0.0000    5.4141 H   0  0
   -0.9528    0.0000   -6.3434 H   0  0
   -3.3684    0.0000    5.4141 H   0  0
   -5.5112    0.0000    4.2005 H   0  0
   -6.7642    0.0000    2.0611 H   0  0
   -6.7767    0.0000   -0.4091 H   0  0
   -5.5866    0.0000   -2.5400 H   0  0
   -4.6398    0.0000   -4.2006 H   0  0
    6.7767    0.0000   -0.4091 H   0  0
    5.5866    0.0000   -2.5400 H   0  0
    4.6398    0.0000   -4.2006 H   0  0
    3.4016    0.0000   -6.3221 H   0  0
   -3.4016    0.0000   -6.3221 H   0  0
   -1.2345    0.0000    6.6500 H   0  0
    1.2345    0.0000    6.6500 H   0  0
M  END

> <TOTAL ENERGY>
BIOVIA, TYPE=DOUBLE, VERSION=1                                                  
 -1838.55662643

> <BINDING ENERGY>
BIOVIA, TYPE=DOUBLE, VERSION=1                                                  
   -15.52133682

> <HIRSHFELD CHARGE>
BIOVIA, TYPE=DOUBLE, ATOMISTIC, VERSION=1                                       
  1    -0.00147104
  2    -0.00079438
  3    -0.00049034
  4    -0.00017554
  5    -0.04448008
  6    -0.00227424
  7    -0.00098899
  8     0.00084064
  9    -0.00148315
 10    -0.00111260
 11     0.00145739
 12    -0.04265559
 13    -0.00303858
 14     0.00151890
 15    -0.04298735
 16    -0.00025792
 17    -0.04325992
 18    -0.00012506
 19    -0.04379137
 20    -0.00049206
 21    -0.04292050
 22    -0.04317087
 23    -0.04313162
 24     0.04588782
 25    -0.00227424
 26    -0.00098899
 27    -0.00303858
 28    -0.00147104
 29    -0.00049034
 30    -0.04298735
 31    -0.00025792
 32    -0.04266553
 33     0.00145739
 34    -0.04266553
 35     0.00084064
 36    -0.00111260
 37    -0.00079438
 38    -0.00017554
 39    -0.04448008
 40    -0.04325992
 41    -0.00012506
 42    -0.04265559
 43     0.00151890
 44    -0.00148315
 45    -0.04317087
 46    -0.04313162
 47    -0.00049206
 48    -0.04292050
 49    -0.04379137
 50     0.04581326
 51     0.04254692
 52     0.04291637
 53     0.04254692
 54     0.04291637
 55     0.04581326
 56     0.04588782
 57     0.04563315
 58     0.04277097
 59     0.04271372
 60     0.04563315
 61     0.04277097
 62     0.04271372
 63     0.04774196
 64     0.04774196
 65     0.04601746
 66     0.04601746

> <HOMO ENERGY>
BIOVIA, TYPE=DOUBLE, VERSION=1                                                  
    -0.17411564

> <LUMO ENERGY>
BIOVIA, TYPE=DOUBLE, VERSION=1                                                  
    -0.10081627

> <LUMO-HOMO ENERGY>
BIOVIA, TYPE=DOUBLE, VERSION=1                                                  
     0.07329938

> <MULLIKEN CHARGE>
BIOVIA, TYPE=DOUBLE, ATOMISTIC, VERSION=1                                       
  1     0.00642662
  2     0.01568241
  3     0.01812370
  4     0.02292822
  5    -0.16440482
  6     0.00705195
  7     0.02300050
  8     0.02988117
  9     0.07935296
 10     0.07849780
 11     0.06322376
 12    -0.08706457
 13     0.00799530
 14     0.05805813
 15    -0.12680710
 16     0.01017447
 17    -0.12918178
 18     0.04722881
 19    -0.12344360
 20     0.07608726
 21    -0.11565855
 22    -0.12141934
 23    -0.11621024
 24     0.05981184
 25     0.00705195
 26     0.02300050
 27     0.00799530
 28     0.00642662
 29     0.01812370
 30    -0.12680710
 31     0.01017447
 32    -0.11338059
 33     0.06322376
 34    -0.11338059
 35     0.02988117
 36     0.07849780
 37     0.01568241
 38     0.02292822
 39    -0.16440482
 40    -0.12918178
 41     0.04722881
 42    -0.08706457
 43     0.05805813
 44     0.07935296
 45    -0.12141934
 46    -0.11621024
 47     0.07608726
 48    -0.11565855
 49    -0.12344360
 50     0.05975047
 51     0.06365365
 52     0.05482755
 53     0.06365365
 54     0.05482755
 55     0.05975047
 56     0.05981184
 57     0.06058326
 58     0.06538484
 59     0.06359432
 60     0.06058326
 61     0.06538484
 62     0.06359432
 63     0.06615209
 64     0.06615209
 65     0.06009950
 66     0.06009950

> <FUKUI MINUS (MULLIKEN)>
BIOVIA, TYPE=DOUBLE, ATOMISTIC, VERSION=1                                       
  1     0.00810054
  2     0.00638475
  3     0.00923120
  4     0.00953282
  5     0.02488605
  6     0.01089352
  7     0.00920856
  8     0.00630885
  9     0.00439402
 10     0.00387402
 11     0.00800154
 12     0.00950804
 13     0.01203301
 14     0.00517469
 15     0.01470384
 16     0.00535807
 17     0.01504389
 18     0.01537850
 19     0.00901640
 20     0.00720885
 21     0.01330505
 22     0.01605499
 23     0.01294580
 24     0.02989119
 25     0.01089352
 26     0.00920856
 27     0.01203301
 28     0.00810054
 29     0.00923120
 30     0.01470384
 31     0.00535807
 32     0.01218803
 33     0.00800154
 34     0.01218803
 35     0.00630885
 36     0.00387402
 37     0.00638475
 38     0.00953282
 39     0.02488605
 40     0.01504389
 41     0.01537850
 42     0.00950804
 43     0.00517469
 44     0.00439402
 45     0.01605499
 46     0.01294580
 47     0.00720885
 48     0.01330505
 49     0.00901640
 50     0.02919333
 51     0.02415152
 52     0.03071825
 53     0.02415152
 54     0.03071825
 55     0.02919333
 56     0.02989119
 57     0.03018950
 58     0.02381479
 59     0.02372764
 60     0.03018950
 61     0.02381479
 62     0.02372764
 63     0.03047908
 64     0.03047908
 65     0.02909967
 66     0.02909967

> <FUKUI MINUS (HIRSHFELD)>
BIOVIA, TYPE=DOUBLE, ATOMISTIC, VERSION=1                                       
  1     0.00851700
  2     0.00718651
  3     0.00873385
  4     0.00854314
  5     0.03044798
  6     0.01103284
  7     0.00926657
  8     0.00574647
  9     0.01367358
 10     0.01316477
 11     0.01097910
 12     0.02201903
 13     0.01240118
 14     0.00881769
 15     0.02393500
 16     0.00502551
 17     0.02383120
 18     0.01759466
 19     0.01922049
 20     0.01543930
 21     0.02313987
 22     0.02488979
 23     0.02315389
 24     0.01559200
 25     0.01103284
 26     0.00926657
 27     0.01240118
 28     0.00851700
 29     0.00873385
 30     0.02393500
 31     0.00502551
 32     0.02191754
 33     0.01097910
 34     0.02191754
 35     0.00574647
 36     0.01316477
 37     0.00718651
 38     0.00854314
 39     0.03044798
 40     0.02383120
 41     0.01759466
 42     0.02201903
 43     0.00881769
 44     0.01367358
 45     0.02488979
 46     0.02315389
 47     0.01543930
 48     0.02313987
 49     0.01922049
 50     0.01513022
 51     0.01265249
 52     0.01631469
 53     0.01265249
 54     0.01631469
 55     0.01513022
 56     0.01559200
 57     0.01599480
 58     0.01210332
 59     0.01245980
 60     0.01599480
 61     0.01210332
 62     0.01245980
 63     0.01613332
 64     0.01613332
 65     0.01500208
 66     0.01500208

> <FUKUI PLUS (MULLIKEN)>
BIOVIA, TYPE=DOUBLE, ATOMISTIC, VERSION=1                                       
  1     0.00727350
  2     0.00603133
  3     0.00892426
  4     0.00939435
  5     0.02422274
  6     0.01053064
  7     0.01037424
  8     0.00638346
  9     0.00327910
 10     0.00257835
 11     0.00873049
 12     0.00770378
 13     0.01194487
 14     0.00454949
 15     0.01747110
 16     0.00465391
 17     0.01775652
 18     0.01697193
 19     0.00864928
 20     0.00736047
 21     0.01439711
 22     0.01483910
 23     0.01296183
 24     0.02983526
 25     0.01053064
 26     0.01037424
 27     0.01194487
 28     0.00727350
 29     0.00892426
 30     0.01747110
 31     0.00465391
 32     0.01233815
 33     0.00873049
 34     0.01233815
 35     0.00638346
 36     0.00257835
 37     0.00603133
 38     0.00939435
 39     0.02422274
 40     0.01775652
 41     0.01697193
 42     0.00770378
 43     0.00454949
 44     0.00327910
 45     0.01483910
 46     0.01296183
 47     0.00736047
 48     0.01439711
 49     0.00864928
 50     0.02919777
 51     0.02417901
 52     0.03016376
 53     0.02417901
 54     0.03016376
 55     0.02919777
 56     0.02983526
 57     0.02997078
 58     0.02345891
 59     0.02409383
 60     0.02997078
 61     0.02345891
 62     0.02409383
 63     0.03089932
 64     0.03089932
 65     0.02888136
 66     0.02888136

> <FUKUI PLUS (HIRSHFELD)>
BIOVIA, TYPE=DOUBLE, ATOMISTIC, VERSION=1                                       
  1     0.00800434
  2     0.00745925
  3     0.00896546
  4     0.00841176
  5     0.02856242
  6     0.01062471
  7     0.00941667
  8     0.00601037
  9     0.01339232
 10     0.01309598
 11     0.01164264
 12     0.02203657
 13     0.01158293
 14     0.00936673
 15     0.02501910
 16     0.00512266
 17     0.02469170
 18     0.01754886
 19     0.01897399
 20     0.01542860
 21     0.02322690
 22     0.02390429
 23     0.02305060
 24     0.01571165
 25     0.01062471
 26     0.00941667
 27     0.01158293
 28     0.00800434
 29     0.00896546
 30     0.02501910
 31     0.00512266
 32     0.02143212
 33     0.01164264
 34     0.02143212
 35     0.00601037
 36     0.01309598
 37     0.00745925
 38     0.00841176
 39     0.02856242
 40     0.02469170
 41     0.01754886
 42     0.02203657
 43     0.00936673
 44     0.01339232
 45     0.02390429
 46     0.02305060
 47     0.01542860
 48     0.02322690
 49     0.01897399
 50     0.01536519
 51     0.01349021
 52     0.01615500
 53     0.01349021
 54     0.01615500
 55     0.01536519
 56     0.01571165
 57     0.01587297
 58     0.01210608
 59     0.01311852
 60     0.01587297
 61     0.01210608
 62     0.01311852
 63     0.01623740
 64     0.01623740
 65     0.01505331
 66     0.01505331

> <FUKUI ZERO (MULLIKEN)>
BIOVIA, TYPE=DOUBLE, ATOMISTIC, VERSION=1                                       
  1     0.00768702
  2     0.00620804
  3     0.00907773
  4     0.00946358
  5     0.02455440
  6     0.01071208
  7     0.00979140
  8     0.00634615
  9     0.00383656
 10     0.00322619
 11     0.00836602
 12     0.00860591
 13     0.01198894
 14     0.00486209
 15     0.01608747
 16     0.00500599
 17     0.01640021
 18     0.01617521
 19     0.00883284
 20     0.00728466
 21     0.01385108
 22     0.01544705
 23     0.01295382
 24     0.02986322
 25     0.01071208
 26     0.00979140
 27     0.01198894
 28     0.00768702
 29     0.00907773
 30     0.01608747
 31     0.00500599
 32     0.01226309
 33     0.00836602
 34     0.01226309
 35     0.00634615
 36     0.00322619
 37     0.00620804
 38     0.00946358
 39     0.02455440
 40     0.01640021
 41     0.01617521
 42     0.00860591
 43     0.00486209
 44     0.00383656
 45     0.01544705
 46     0.01295382
 47     0.00728466
 48     0.01385108
 49     0.00883284
 50     0.02919555
 51     0.02416526
 52     0.03044101
 53     0.02416526
 54     0.03044101
 55     0.02919555
 56     0.02986322
 57     0.03008014
 58     0.02363685
 59     0.02391074
 60     0.03008014
 61     0.02363685
 62     0.02391074
 63     0.03068920
 64     0.03068920
 65     0.02899051
 66     0.02899051

> <FUKUI ZERO (HIRSHFELD)>
BIOVIA, TYPE=DOUBLE, ATOMISTIC, VERSION=1                                       
  1     0.00826067
  2     0.00732288
  3     0.00884966
  4     0.00847745
  5     0.02950520
  6     0.01082877
  7     0.00934162
  8     0.00587842
  9     0.01353295
 10     0.01313038
 11     0.01131087
 12     0.02202780
 13     0.01199206
 14     0.00909221
 15     0.02447705
 16     0.00507409
 17     0.02426145
 18     0.01757176
 19     0.01909724
 20     0.01543395
 21     0.02318339
 22     0.02439704
 23     0.02310225
 24     0.01565183
 25     0.01082877
 26     0.00934162
 27     0.01199206
 28     0.00826067
 29     0.00884966
 30     0.02447705
 31     0.00507409
 32     0.02167483
 33     0.01131087
 34     0.02167483
 35     0.00587842
 36     0.01313038
 37     0.00732288
 38     0.00847745
 39     0.02950520
 40     0.02426145
 41     0.01757176
 42     0.02202780
 43     0.00909221
 44     0.01353295
 45     0.02439704
 46     0.02310225
 47     0.01543395
 48     0.02318339
 49     0.01909724
 50     0.01524770
 51     0.01307135
 52     0.01623485
 53     0.01307135
 54     0.01623485
 55     0.01524770
 56     0.01565183
 57     0.01593388
 58     0.01210470
 59     0.01278916
 60     0.01593388
 61     0.01210470
 62     0.01278916
 63     0.01618536
 64     0.01618536
 65     0.01502769
 66     0.01502769

> <OPERATION STATUS>
BIOVIA, TYPE=STATUS, VERSION=1                                                  
SUCCESS

$$$$
