Materials Studio SDF calculation
TCVAMP81A 

 66  0  0  0  0  0              1 V2000
    1.6382    1.0944    0.0057 C   0  0
    0.4295    3.2661   -0.0080 C   0  0
    4.1290    1.0716    0.0168 C   0  0
    2.8893    3.2154    0.0161 C   0  0
    5.3163    3.2138    0.0308 C   0  0
    0.4116    1.8230   -0.0027 C   0  0
    2.8883    1.7832    0.0124 C   0  0
    1.6544    3.9106    0.0069 C   0  0
    5.3216    1.8144    0.0251 C   0  0
    4.1184    3.9127    0.0264 C   0  0
   -3.2988    1.1382   -0.0062 C   0  0
   -4.5308    3.2457   -0.0294 C   0  0
   -0.8271    1.1216   -0.0037 C   0  0
   -2.0680    3.2718   -0.0237 C   0  0
   -4.5473    1.8574   -0.0133 C   0  0
   -2.0691    1.8444   -0.0101 C   0  0
   -3.3201    3.9774   -0.0365 C   0  0
   -0.8401    4.0016   -0.0278 C   0  0
   -3.3175    5.3938   -0.0574 C   0  0
   -0.8987    5.4007   -0.0541 C   0  0
   -5.7771    1.1127   -0.0061 C   0  0
   -2.1217    6.0895   -0.0684 C   0  0
   -5.7802   -0.2497    0.0046 C   0  0
   -6.7231   -0.8002    0.0098 H   0  0
    0.3876   -1.0290    0.0063 C   0  0
    2.8589   -1.0659    0.0097 C   0  0
   -0.8398   -0.3008    0.0030 C   0  0
    1.6244   -0.3367    0.0074 C   0  0
    4.1096   -0.3836    0.0124 C   0  0
   -4.5537   -0.9988    0.0079 C   0  0
   -2.0839   -1.0062    0.0058 C   0  0
   -2.1587   -5.2647    0.0178 C   0  0
   -3.3095   -0.2870    0.0030 C   0  0
   -3.3331   -4.5647    0.0190 C   0  0
    1.5826   -3.1907    0.0088 C   0  0
    4.0446   -3.2404    0.0077 C   0  0
    0.3642   -2.4628    0.0089 C   0  0
    2.8287   -2.4967    0.0085 C   0  0
    5.2670   -2.5361    0.0081 C   0  0
   -3.3474   -3.1311    0.0150 C   0  0
   -0.8752   -3.1577    0.0113 C   0  0
   -4.5448   -2.3973    0.0146 C   0  0
   -2.1001   -2.4308    0.0110 C   0  0
    5.2943   -1.1541    0.0109 C   0  0
    0.3223   -5.2915    0.0124 C   0  0
    2.8002   -5.3367    0.0078 C   0  0
    1.5574   -4.6257    0.0095 C   0  0
    3.9944   -4.6699    0.0066 C   0  0
   -0.8921   -4.5916    0.0139 C   0  0
   -6.7167    1.6684   -0.0100 H   0  0
    4.1090    5.0040    0.0301 H   0  0
    6.2653    3.7522    0.0383 H   0  0
    1.7044    4.9993    0.0109 H   0  0
    6.2029   -3.0982    0.0066 H   0  0
    4.9375   -5.2202    0.0053 H   0  0
    2.7739   -6.4280    0.0075 H   0  0
    0.3067   -6.3838    0.0136 H   0  0
    6.2830    1.3031    0.0288 H   0  0
    6.2635   -0.6577    0.0113 H   0  0
   -2.1218    7.1801   -0.0888 H   0  0
   -4.2727    5.9223   -0.0667 H   0  0
    0.0197    5.9854   -0.0647 H   0  0
   -5.4765    3.7928   -0.0372 H   0  0
   -5.4972   -2.9331    0.0183 H   0  0
   -4.2905   -5.0900    0.0225 H   0  0
   -2.1657   -6.3563    0.0195 H   0  0
M  END

> <TOTAL ENERGY>
BIOVIA, TYPE=DOUBLE, VERSION=1                                                  
 -1838.54744051

> <BINDING ENERGY>
BIOVIA, TYPE=DOUBLE, VERSION=1                                                  
   -15.51215090

> <HIRSHFELD CHARGE>
BIOVIA, TYPE=DOUBLE, ATOMISTIC, VERSION=1                                       
  1    -0.00101779
  2    -0.00030642
  3     0.00078822
  4     0.00011808
  5    -0.04377563
  6    -0.00132009
  7     0.00120956
  8    -0.04331705
  9    -0.04394432
 10    -0.04336045
 11    -0.00007256
 12    -0.04408956
 13    -0.00275046
 14     0.00076859
 15    -0.00189972
 16    -0.00220901
 17     0.00010667
 18     0.00121457
 19    -0.04247832
 20    -0.04278306
 21    -0.04283225
 22    -0.04369328
 23    -0.04296678
 24     0.04635283
 25    -0.00151592
 26    -0.00012345
 27    -0.00140561
 28    -0.00226832
 29     0.00015455
 30    -0.00173832
 31    -0.00080779
 32    -0.04317968
 33    -0.00052398
 34    -0.04308160
 35     0.00023877
 36    -0.00065247
 37    -0.00104992
 38     0.00142015
 39    -0.04322916
 40    -0.00168491
 41    -0.00012965
 42    -0.04444610
 43    -0.00015195
 44    -0.04397414
 45    -0.04448269
 46    -0.04306071
 47    -0.00110218
 48    -0.04322117
 49    -0.00138261
 50     0.04643957
 51     0.04506733
 52     0.04776980
 53     0.04116119
 54     0.04568449
 55     0.04616839
 56     0.04621928
 57     0.04323623
 58     0.04222260
 59     0.04342735
 60     0.04786980
 61     0.04544809
 62     0.04241717
 63     0.04318956
 64     0.04305041
 65     0.04602933
 66     0.04622765

> <HOMO ENERGY>
BIOVIA, TYPE=DOUBLE, VERSION=1                                                  
    -0.16286260

> <LUMO ENERGY>
BIOVIA, TYPE=DOUBLE, VERSION=1                                                  
    -0.11311814

> <LUMO-HOMO ENERGY>
BIOVIA, TYPE=DOUBLE, VERSION=1                                                  
     0.04974445

> <MULLIKEN CHARGE>
BIOVIA, TYPE=DOUBLE, ATOMISTIC, VERSION=1                                       
  1     0.01888099
  2     0.04876472
  3     0.05950515
  4     0.09778025
  5    -0.08333859
  6    -0.00109816
  7     0.01262557
  8    -0.16098093
  9    -0.13501306
 10    -0.12844109
 11     0.01580517
 12    -0.15803701
 13     0.00788185
 14     0.01610543
 15     0.08331595
 16     0.02262386
 17     0.09410327
 18     0.06012510
 19    -0.12330149
 20    -0.13307143
 21    -0.11294803
 22    -0.08440925
 23    -0.11298739
 24     0.06140873
 25     0.00824217
 26     0.01492734
 27     0.00650125
 28     0.01317783
 29     0.04322867
 30     0.07586621
 31     0.02159711
 32    -0.11597281
 33     0.01936187
 34    -0.11513902
 35     0.02263768
 36     0.07712963
 37     0.02426984
 38     0.02951309
 39    -0.12409445
 40     0.07467369
 41     0.01888419
 42    -0.16381071
 43     0.01925098
 44    -0.12282204
 45    -0.16327277
 46    -0.11406879
 47     0.07598675
 48    -0.11736698
 49     0.07485613
 50     0.06162611
 51     0.06012512
 52     0.06647478
 53     0.06392292
 54     0.06175176
 55     0.06127963
 56     0.06108212
 57     0.05637909
 58     0.06484353
 59     0.06615268
 60     0.06664681
 61     0.05976359
 62     0.06574001
 63     0.05666837
 64     0.05612079
 65     0.06119375
 66     0.06137246

> <FUKUI MINUS (MULLIKEN)>
BIOVIA, TYPE=DOUBLE, ATOMISTIC, VERSION=1                                       
  1     0.00591952
  2     0.00902218
  3     0.00469430
  4     0.00052780
  5     0.00661899
  6     0.00967887
  7     0.00730415
  8     0.02539233
  9     0.02502387
 10     0.02311465
 11     0.01091460
 12     0.02976065
 13     0.00967858
 14     0.00675214
 15     0.00275533
 16     0.01223283
 17    -0.00101242
 18     0.00770626
 19     0.02264308
 20     0.01867890
 21     0.01134731
 22     0.00762828
 23     0.01217742
 24     0.02861411
 25     0.01022837
 26     0.00463464
 27     0.00636380
 28     0.01438629
 29     0.01419308
 30     0.00826328
 31     0.00534559
 32     0.01237278
 33     0.00642910
 34     0.00685540
 35     0.00769433
 36     0.00602910
 37     0.00756551
 38     0.00562605
 39     0.01595009
 40     0.00868678
 41     0.00866013
 42     0.01327218
 43     0.00943596
 44     0.00536234
 45     0.02409479
 46     0.01175929
 47     0.00316608
 48     0.01091696
 49     0.00152554
 50     0.02808308
 51     0.02994524
 52     0.03224171
 53     0.02412299
 54     0.02866352
 55     0.02746148
 56     0.02705464
 57     0.02877890
 58     0.02793561
 59     0.02108081
 60     0.03183348
 61     0.03190758
 62     0.02360546
 63     0.03181016
 64     0.02685025
 65     0.02595219
 66     0.02668172

> <FUKUI MINUS (HIRSHFELD)>
BIOVIA, TYPE=DOUBLE, ATOMISTIC, VERSION=1                                       
  1     0.00580153
  2     0.01344058
  3     0.00999960
  4     0.00944540
  5     0.02161851
  6     0.00982282
  7     0.00453485
  8     0.03082803
  9     0.03387885
 10     0.03175951
 11     0.01030640
 12     0.03544422
 13     0.01036801
 14     0.00505912
 15     0.01230314
 16     0.01265478
 17     0.00882789
 18     0.01056093
 19     0.03196497
 20     0.02780090
 21     0.02098087
 22     0.02189155
 23     0.02155948
 24     0.01500532
 25     0.01134057
 26     0.00570857
 27     0.00608729
 28     0.01495461
 29     0.01558367
 30     0.01599235
 31     0.00443410
 32     0.02034077
 33     0.00637361
 34     0.01598077
 35     0.00635532
 36     0.01403495
 37     0.00801592
 38     0.00445756
 39     0.02386211
 40     0.01605936
 41     0.00802957
 42     0.01911732
 43     0.00976224
 44     0.01511762
 45     0.02916135
 46     0.02070821
 47     0.01209010
 48     0.02025130
 49     0.00998068
 50     0.01440498
 51     0.01630155
 52     0.01684259
 53     0.01290243
 54     0.01534378
 55     0.01426299
 56     0.01403734
 57     0.01551128
 58     0.01543892
 59     0.01052684
 60     0.01671737
 61     0.01735285
 62     0.01266599
 63     0.01723904
 64     0.01371348
 65     0.01323274
 66     0.01398398

> <FUKUI PLUS (MULLIKEN)>
BIOVIA, TYPE=DOUBLE, ATOMISTIC, VERSION=1                                       
  1     0.00592945
  2     0.00786166
  3     0.00483445
  4    -0.00033067
  5     0.00534859
  6     0.00996295
  7     0.00734345
  8     0.02997183
  9     0.02649090
 10     0.02249418
 11     0.00957288
 12     0.02977676
 13     0.00852841
 14     0.00624263
 15     0.00213797
 16     0.01310421
 17    -0.00197331
 18     0.00825943
 19     0.02469721
 20     0.02257320
 21     0.01223807
 22     0.00572488
 23     0.01217080
 24     0.02878995
 25     0.00983838
 26     0.00407216
 27     0.00588329
 28     0.01451880
 29     0.01413472
 30     0.00771464
 31     0.00527202
 32     0.01269125
 33     0.00687727
 34     0.00614053
 35     0.00762992
 36     0.00682561
 37     0.00846365
 38     0.00546726
 39     0.01410907
 40     0.00844426
 41     0.00829900
 42     0.01199135
 43     0.00984087
 44     0.00627524
 45     0.02464260
 46     0.01246878
 47     0.00256396
 48     0.01067096
 49     0.00062108
 50     0.02803826
 51     0.02970372
 52     0.03238139
 53     0.02353556
 54     0.02845511
 55     0.02746259
 56     0.02707138
 57     0.02866008
 58     0.02773427
 59     0.02087084
 60     0.03221709
 61     0.03228208
 62     0.02356703
 63     0.03141495
 64     0.02681790
 65     0.02595516
 66     0.02662610

> <FUKUI PLUS (HIRSHFELD)>
BIOVIA, TYPE=DOUBLE, ATOMISTIC, VERSION=1                                       
  1     0.00616444
  2     0.01409800
  3     0.01048208
  4     0.00950694
  5     0.02180755
  6     0.00937135
  7     0.00478694
  8     0.03141769
  9     0.03366318
 10     0.03065467
 11     0.01018438
 12     0.03347340
 13     0.00932333
 14     0.00524371
 15     0.01285622
 16     0.01212199
 17     0.00955419
 18     0.01148715
 19     0.03217751
 20     0.02927577
 21     0.02055363
 22     0.02194337
 23     0.02196902
 24     0.01519894
 25     0.01134503
 26     0.00552681
 27     0.00600300
 28     0.01408297
 29     0.01480871
 30     0.01536285
 31     0.00441032
 32     0.01993991
 33     0.00637260
 34     0.01590364
 35     0.00658312
 36     0.01423235
 37     0.00815567
 38     0.00466763
 39     0.02268193
 40     0.01590556
 41     0.00803076
 42     0.01877630
 43     0.00967375
 44     0.01576825
 45     0.02864101
 46     0.02070572
 47     0.01190639
 48     0.02008045
 49     0.01016669
 50     0.01449419
 51     0.01619570
 52     0.01678299
 53     0.01383587
 54     0.01509413
 55     0.01432930
 56     0.01415320
 57     0.01553029
 58     0.01589779
 59     0.01074262
 60     0.01675934
 61     0.01777754
 62     0.01385863
 63     0.01705998
 64     0.01355594
 65     0.01313911
 66     0.01392632

> <FUKUI ZERO (MULLIKEN)>
BIOVIA, TYPE=DOUBLE, ATOMISTIC, VERSION=1                                       
  1     0.00592448
  2     0.00844192
  3     0.00476437
  4     0.00009856
  5     0.00598379
  6     0.00982091
  7     0.00732380
  8     0.02768208
  9     0.02575739
 10     0.02280441
 11     0.01024374
 12     0.02976870
 13     0.00910350
 14     0.00649738
 15     0.00244665
 16     0.01266852
 17    -0.00149287
 18     0.00798285
 19     0.02367015
 20     0.02062605
 21     0.01179269
 22     0.00667658
 23     0.01217411
 24     0.02870203
 25     0.01003337
 26     0.00435340
 27     0.00612355
 28     0.01445255
 29     0.01416390
 30     0.00798896
 31     0.00530881
 32     0.01253202
 33     0.00665318
 34     0.00649796
 35     0.00766213
 36     0.00642735
 37     0.00801458
 38     0.00554665
 39     0.01502958
 40     0.00856552
 41     0.00847957
 42     0.01263177
 43     0.00963841
 44     0.00581879
 45     0.02436869
 46     0.01211404
 47     0.00286502
 48     0.01079396
 49     0.00107331
 50     0.02806067
 51     0.02982448
 52     0.03231155
 53     0.02382927
 54     0.02855931
 55     0.02746203
 56     0.02706301
 57     0.02871949
 58     0.02783494
 59     0.02097582
 60     0.03202529
 61     0.03209483
 62     0.02358625
 63     0.03161256
 64     0.02683407
 65     0.02595367
 66     0.02665391

> <FUKUI ZERO (HIRSHFELD)>
BIOVIA, TYPE=DOUBLE, ATOMISTIC, VERSION=1                                       
  1     0.00598299
  2     0.01376929
  3     0.01024084
  4     0.00947617
  5     0.02171303
  6     0.00959708
  7     0.00466089
  8     0.03112286
  9     0.03377102
 10     0.03120709
 11     0.01024539
 12     0.03445881
 13     0.00984567
 14     0.00515141
 15     0.01257968
 16     0.01238839
 17     0.00919104
 18     0.01102404
 19     0.03207124
 20     0.02853833
 21     0.02076725
 22     0.02191746
 23     0.02176425
 24     0.01510213
 25     0.01134280
 26     0.00561769
 27     0.00604515
 28     0.01451879
 29     0.01519619
 30     0.01567760
 31     0.00442221
 32     0.02014034
 33     0.00637310
 34     0.01594220
 35     0.00646922
 36     0.01413365
 37     0.00808580
 38     0.00456259
 39     0.02327202
 40     0.01598246
 41     0.00803017
 42     0.01894681
 43     0.00971800
 44     0.01544293
 45     0.02890118
 46     0.02070696
 47     0.01199825
 48     0.02016587
 49     0.01007369
 50     0.01444959
 51     0.01624863
 52     0.01681279
 53     0.01336915
 54     0.01521896
 55     0.01429615
 56     0.01409527
 57     0.01552078
 58     0.01566835
 59     0.01063473
 60     0.01673836
 61     0.01756520
 62     0.01326231
 63     0.01714951
 64     0.01363471
 65     0.01318593
 66     0.01395515

> <OPERATION STATUS>
BIOVIA, TYPE=STATUS, VERSION=1                                                  
SUCCESS

$$$$
