Materials Studio SDF calculation
TCVAMP81A 

 66  0  0  0  0  0              1 V2000
    1.1192    0.4983    0.0000 C   0  0
   -0.0949    2.6574    0.0000 C   0  0
    3.5930    0.4915    0.0000 C   0  0
    2.3808    2.6277    0.0000 C   0  0
    4.8282    2.6043    0.0000 C   0  0
   -0.1066    1.2231    0.0000 C   0  0
    2.3673    1.2070    0.0000 C   0  0
    1.1541    3.3542    0.0000 C   0  0
    4.8390    1.2031    0.0000 C   0  0
    3.6308    3.3322    0.0000 C   0  0
   -3.8196    0.5503    0.0000 C   0  0
   -5.0184    2.6808    0.0000 C   0  0
   -1.3458    0.5214    0.0000 C   0  0
   -2.5748    2.6811    0.0000 C   0  0
   -5.0528    1.2651    0.0000 C   0  0
   -2.5780    1.2577    0.0000 C   0  0
   -3.8228    3.3613    0.0000 C   0  0
   -1.3141    3.3924    0.0000 C   0  0
   -1.2485    4.8091    0.0000 C   0  0
    1.1817    4.7796    0.0000 C   0  0
    3.6182    4.7639    0.0000 C   0  0
   -0.0446    5.4815    0.0000 C   0  0
    2.4402    5.4589    0.0000 C   0  0
    2.4404    6.5506    0.0000 H   0  0
   -0.1312   -1.6290    0.0000 C   0  0
    2.3492   -1.6493    0.0000 C   0  0
   -1.3570   -0.9042    0.0000 C   0  0
    1.1094   -0.9253    0.0000 C   0  0
    3.5872   -0.9345    0.0000 C   0  0
   -5.0834   -1.5665    0.0000 C   0  0
   -2.6087   -1.6122    0.0000 C   0  0
   -6.2986   -0.8227    0.0000 C   0  0
   -3.8340   -0.8775    0.0000 C   0  0
   -6.2841    0.5477    0.0000 C   0  0
    1.0921   -3.7926    0.0000 C   0  0
    3.6035   -3.7405    0.0000 C   0  0
   -0.1414   -3.0651    0.0000 C   0  0
    2.3557   -3.0713    0.0000 C   0  0
    4.8001   -3.0513    0.0000 C   0  0
   -3.8953   -3.6861    0.0000 C   0  0
   -1.3855   -3.7733    0.0000 C   0  0
   -5.0780   -2.9814    0.0000 C   0  0
   -2.6354   -3.0318    0.0000 C   0  0
    4.8262   -1.6406    0.0000 C   0  0
   -0.1633   -5.8819    0.0000 C   0  0
    6.0543   -0.9080    0.0000 C   0  0
    1.0484   -5.1978    0.0000 C   0  0
    6.0619    0.4592    0.0000 C   0  0
   -1.3635   -5.1808    0.0000 C   0  0
    4.5750    5.2899    0.0000 H   0  0
    3.6361   -4.8283    0.0000 H   0  0
    5.7792    3.1423    0.0000 H   0  0
    1.9707   -5.7757    0.0000 H   0  0
    5.7461   -3.5964    0.0000 H   0  0
    7.0055    1.0082    0.0000 H   0  0
    6.9924   -1.4663    0.0000 H   0  0
   -0.1710   -6.9725    0.0000 H   0  0
   -2.2951   -5.7428    0.0000 H   0  0
   -3.9414   -4.7733    0.0000 H   0  0
   -0.0280    6.5730    0.0000 H   0  0
   -2.1663    5.3937    0.0000 H   0  0
   -3.8457    4.4492    0.0000 H   0  0
   -5.9626    3.2288    0.0000 H   0  0
   -6.0328   -3.5110    0.0000 H   0  0
   -7.2180    1.1128    0.0000 H   0  0
   -7.2447   -1.3675    0.0000 H   0  0
M  END

> <SURFACE AREA>
BIOVIA, TYPE=DOUBLE, VERSION=1                                                  
  1736.57679459

> <CAVITY VOLUME>
BIOVIA, TYPE=DOUBLE, VERSION=1                                                  
  4039.22610730

> <DIELECTRIC ENERGY>
BIOVIA, TYPE=DOUBLE, VERSION=1                                                  
    -0.02268916

> <SOLVATION ENERGY>
BIOVIA, TYPE=DOUBLE, VERSION=1                                                  
    -0.02268916

> <TOTAL ENERGY>
BIOVIA, TYPE=DOUBLE, VERSION=1                                                  
 -1838.57577844

> <BINDING ENERGY>
BIOVIA, TYPE=DOUBLE, VERSION=1                                                  
   -15.54048883

> <HIRSHFELD CHARGE>
BIOVIA, TYPE=DOUBLE, ATOMISTIC, VERSION=1                                       
  1    -0.00764066
  2    -0.00761968
  3    -0.00735439
  4    -0.00725111
  5    -0.04416879
  6    -0.00848959
  7    -0.00818495
  8    -0.00691573
  9    -0.00703903
 10    -0.00709905
 11    -0.00684693
 12    -0.04240558
 13    -0.00856692
 14    -0.00666585
 15    -0.00622452
 16    -0.00830498
 17    -0.04526464
 18    -0.00699442
 19    -0.04524010
 20    -0.00653030
 21    -0.04381622
 22    -0.04259411
 23    -0.04393300
 24     0.05760414
 25    -0.00961193
 26    -0.00816445
 27    -0.00859738
 28    -0.00854902
 29    -0.00670688
 30    -0.00617328
 31    -0.00879839
 32    -0.04370989
 33    -0.00662697
 34    -0.04373117
 35    -0.00624562
 36    -0.04474274
 37    -0.00771979
 38    -0.00660952
 39    -0.04249330
 40    -0.04505234
 41    -0.00631817
 42    -0.04246827
 43    -0.00667505
 44    -0.00646593
 45    -0.04187708
 46    -0.04377180
 47    -0.04435255
 48    -0.04372728
 49    -0.04452054
 50     0.05739091
 51     0.05452535
 52     0.05568521
 53     0.05378366
 54     0.05779573
 55     0.05756266
 56     0.05747425
 57     0.05958353
 58     0.05377099
 59     0.05465363
 60     0.05793856
 61     0.05427176
 62     0.05450141
 63     0.05782573
 64     0.05781745
 65     0.05744649
 66     0.05745715

> <HOMO ENERGY>
BIOVIA, TYPE=DOUBLE, VERSION=1                                                  
    -0.17774286

> <LUMO ENERGY>
BIOVIA, TYPE=DOUBLE, VERSION=1                                                  
    -0.11375050

> <LUMO-HOMO ENERGY>
BIOVIA, TYPE=DOUBLE, VERSION=1                                                  
     0.06399235

> <MULLIKEN CHARGE>
BIOVIA, TYPE=DOUBLE, ATOMISTIC, VERSION=1                                       
  1    -0.00017227
  2     0.00621204
  3     0.01577775
  4     0.01508345
  5    -0.17254896
  6     0.00246773
  7     0.01966884
  8     0.02363843
  9     0.06275564
 10     0.06226054
 11     0.02700458
 12    -0.13445214
 13     0.00156908
 14     0.02975022
 15     0.06092564
 16     0.00979730
 17    -0.14177636
 18     0.03225839
 19    -0.14477790
 20     0.05720189
 21    -0.13011670
 22    -0.13385162
 23    -0.13040848
 24     0.09029516
 25     0.00333770
 26     0.01022487
 27    -0.00018273
 28     0.00094613
 29     0.02297057
 30     0.06063874
 31     0.01222764
 32    -0.13001721
 33     0.02643131
 34    -0.13107222
 35     0.04789238
 36    -0.14177312
 37     0.00064839
 38     0.03475621
 39    -0.13696521
 40    -0.14152045
 41     0.04829214
 42    -0.13451073
 43     0.03392192
 44     0.05986677
 45    -0.10402250
 46    -0.12928358
 47    -0.14819500
 48    -0.12930741
 49    -0.14785493
 50     0.09009476
 51     0.09793517
 52     0.08857719
 53     0.09605975
 54     0.09188168
 55     0.09017055
 56     0.08987580
 57     0.09489896
 58     0.09619948
 59     0.09821335
 60     0.09189072
 61     0.09771016
 62     0.09743485
 63     0.09191844
 64     0.09181869
 65     0.08962400
 66     0.08968451

> <FUKUI MINUS (MULLIKEN)>
BIOVIA, TYPE=DOUBLE, ATOMISTIC, VERSION=1                                       
  1     0.01583545
  2     0.00973562
  3     0.01342814
  4     0.01354555
  5     0.04258958
  6     0.01029887
  7     0.01562922
  8     0.01093460
  9     0.00622591
 10     0.00531397
 11     0.00865703
 12     0.01618996
 13     0.01230670
 14     0.01648650
 15     0.01032115
 16     0.01218673
 17     0.01052584
 18     0.01417522
 19     0.01917674
 20     0.01774776
 21     0.02384926
 22     0.01417146
 23     0.01546995
 24     0.01608383
 25     0.01080724
 26     0.00988312
 27     0.01923010
 28     0.01598790
 29     0.01003860
 30     0.00666804
 31     0.01158922
 32     0.01779566
 33     0.00854522
 34     0.01482246
 35     0.01052938
 36     0.01514655
 37     0.00981618
 38     0.02081976
 39     0.01873023
 40     0.00900866
 41     0.00788833
 42     0.02204571
 43     0.02153285
 44     0.01508488
 45     0.01086282
 46     0.01701047
 47     0.02615997
 48     0.02277128
 49     0.02866244
 50     0.01791934
 51     0.01486329
 52     0.02349868
 53     0.01689414
 54     0.01631674
 55     0.01776340
 56     0.01642671
 57     0.01513490
 58     0.01721022
 59     0.01255679
 60     0.01509473
 61     0.01490342
 62     0.01207167
 63     0.01373089
 64     0.01552001
 65     0.01357158
 66     0.01420137

> <FUKUI MINUS (HIRSHFELD)>
BIOVIA, TYPE=DOUBLE, ATOMISTIC, VERSION=1                                       
  1     0.01646929
  2     0.00887051
  3     0.01168605
  4     0.01183523
  5     0.04185212
  6     0.00965362
  7     0.01610369
  8     0.01093941
  9     0.01421915
 10     0.01315211
 11     0.00783841
 12     0.01850788
 13     0.01256377
 14     0.01806786
 15     0.01440532
 16     0.01232744
 17     0.01402510
 18     0.01674786
 19     0.02202026
 20     0.02180333
 21     0.02648381
 22     0.01776468
 23     0.01984358
 24     0.01058553
 25     0.01088346
 26     0.01020329
 27     0.01891385
 28     0.01566543
 29     0.00917939
 30     0.01151129
 31     0.01297472
 32     0.02049218
 33     0.00704565
 34     0.01809050
 35     0.01413778
 36     0.01926711
 37     0.00770873
 38     0.02223453
 39     0.02163017
 40     0.01344788
 41     0.01150990
 42     0.02391960
 43     0.02210242
 44     0.01997378
 45     0.01769533
 46     0.02118506
 47     0.02842159
 48     0.02563644
 49     0.03034977
 50     0.01207035
 51     0.00946927
 52     0.01596946
 53     0.01122284
 54     0.01098043
 55     0.01190548
 56     0.01087568
 57     0.01018809
 58     0.01169885
 59     0.00791913
 60     0.00991429
 61     0.00973206
 62     0.00761184
 63     0.00929092
 64     0.01076130
 65     0.00903830
 66     0.00958323

> <FUKUI PLUS (MULLIKEN)>
BIOVIA, TYPE=DOUBLE, ATOMISTIC, VERSION=1                                       
  1     0.01506148
  2     0.00938443
  3     0.01379489
  4     0.01296465
  5     0.04369199
  6     0.01025578
  7     0.01721879
  8     0.01151488
  9     0.00467205
 10     0.00385946
 11     0.00842491
 12     0.01549005
 13     0.01207161
 14     0.01647960
 15     0.01024956
 16     0.01182725
 17     0.01107721
 18     0.01420586
 19     0.02100699
 20     0.01804348
 21     0.02486633
 22     0.01262407
 23     0.01462015
 24     0.01606530
 25     0.01083935
 26     0.00897607
 27     0.01936458
 28     0.01678063
 29     0.01002896
 30     0.00661083
 31     0.01072887
 32     0.01766006
 33     0.00832615
 34     0.01452093
 35     0.01025399
 36     0.01832978
 37     0.00959520
 38     0.02106425
 39     0.01635781
 40     0.00834559
 41     0.00722133
 42     0.02178766
 43     0.02305358
 44     0.01633033
 45     0.00949341
 46     0.01559055
 47     0.02942246
 48     0.02308160
 49     0.03007826
 50     0.01765838
 51     0.01531232
 52     0.02317504
 53     0.01708194
 54     0.01639271
 55     0.01726159
 56     0.01605556
 57     0.01539686
 58     0.01717636
 59     0.01262938
 60     0.01537010
 61     0.01520005
 62     0.01215939
 63     0.01361333
 64     0.01525431
 65     0.01320248
 66     0.01374726

> <FUKUI PLUS (HIRSHFELD)>
BIOVIA, TYPE=DOUBLE, ATOMISTIC, VERSION=1                                       
  1     0.01606215
  2     0.00876529
  3     0.01244399
  4     0.01202567
  5     0.04006699
  6     0.00981599
  7     0.01632009
  8     0.01098623
  9     0.01444351
 10     0.01378630
 11     0.00779484
 12     0.01801523
 13     0.01249453
 14     0.01777346
 15     0.01432380
 16     0.01170292
 17     0.01459787
 18     0.01675939
 19     0.02281452
 20     0.02167427
 21     0.02542263
 22     0.01794756
 23     0.01986279
 24     0.01065032
 25     0.01112215
 26     0.01003946
 27     0.01869203
 28     0.01566001
 29     0.00957256
 30     0.01181087
 31     0.01252512
 32     0.01943021
 33     0.00707771
 34     0.01746698
 35     0.01432131
 36     0.02128733
 37     0.00780511
 38     0.02164754
 39     0.02099214
 40     0.01378376
 41     0.01202692
 42     0.02292590
 43     0.02201104
 44     0.02000973
 45     0.01834679
 46     0.02030685
 47     0.02933660
 48     0.02412839
 49     0.02981317
 50     0.01213442
 51     0.01054021
 52     0.01614649
 53     0.01232662
 54     0.01096444
 55     0.01177722
 56     0.01072022
 57     0.01031431
 58     0.01207609
 59     0.00795158
 60     0.01000325
 61     0.01032393
 62     0.00787296
 63     0.00922261
 64     0.01072446
 65     0.00890522
 66     0.00943526

> <FUKUI ZERO (MULLIKEN)>
BIOVIA, TYPE=DOUBLE, ATOMISTIC, VERSION=1                                       
  1     0.01544846
  2     0.00956002
  3     0.01361151
  4     0.01325510
  5     0.04314078
  6     0.01027733
  7     0.01642401
  8     0.01122474
  9     0.00544898
 10     0.00458672
 11     0.00854097
 12     0.01584000
 13     0.01218916
 14     0.01648305
 15     0.01028536
 16     0.01200699
 17     0.01080152
 18     0.01419054
 19     0.02009186
 20     0.01789562
 21     0.02435779
 22     0.01339776
 23     0.01504505
 24     0.01607457
 25     0.01082329
 26     0.00942959
 27     0.01929734
 28     0.01638426
 29     0.01003378
 30     0.00663943
 31     0.01115904
 32     0.01772786
 33     0.00843569
 34     0.01467170
 35     0.01039168
 36     0.01673817
 37     0.00970569
 38     0.02094200
 39     0.01754402
 40     0.00867712
 41     0.00755483
 42     0.02191669
 43     0.02229322
 44     0.01570761
 45     0.01017811
 46     0.01630051
 47     0.02779122
 48     0.02292644
 49     0.02937035
 50     0.01778886
 51     0.01508781
 52     0.02333686
 53     0.01698804
 54     0.01635472
 55     0.01751250
 56     0.01624113
 57     0.01526588
 58     0.01719329
 59     0.01259308
 60     0.01523241
 61     0.01505174
 62     0.01211553
 63     0.01367211
 64     0.01538716
 65     0.01338703
 66     0.01397432

> <FUKUI ZERO (HIRSHFELD)>
BIOVIA, TYPE=DOUBLE, ATOMISTIC, VERSION=1                                       
  1     0.01626572
  2     0.00881790
  3     0.01206502
  4     0.01193045
  5     0.04095956
  6     0.00973480
  7     0.01621189
  8     0.01096282
  9     0.01433133
 10     0.01346921
 11     0.00781662
 12     0.01826155
 13     0.01252915
 14     0.01792066
 15     0.01436456
 16     0.01201518
 17     0.01431148
 18     0.01675362
 19     0.02241739
 20     0.02173880
 21     0.02595322
 22     0.01785612
 23     0.01985318
 24     0.01061792
 25     0.01100281
 26     0.01012137
 27     0.01880294
 28     0.01566272
 29     0.00937597
 30     0.01166108
 31     0.01274992
 32     0.01996120
 33     0.00706168
 34     0.01777874
 35     0.01422955
 36     0.02027722
 37     0.00775692
 38     0.02194104
 39     0.02131115
 40     0.01361582
 41     0.01176841
 42     0.02342275
 43     0.02205673
 44     0.01999176
 45     0.01802106
 46     0.02074596
 47     0.02887909
 48     0.02488241
 49     0.03008147
 50     0.01210238
 51     0.01000474
 52     0.01605797
 53     0.01177473
 54     0.01097244
 55     0.01184135
 56     0.01079795
 57     0.01025120
 58     0.01188747
 59     0.00793536
 60     0.00995877
 61     0.01002799
 62     0.00774240
 63     0.00925676
 64     0.01074288
 65     0.00897176
 66     0.00950925

> <OPERATION STATUS>
BIOVIA, TYPE=STATUS, VERSION=1                                                  
SUCCESS

$$$$
