Materials Studio SDF calculation
TCVAMP81A 

 66  0  0  0  0  0              1 V2000
    0.7117    0.0000    0.7631 C   0  0
    2.8615    0.0000   -0.4605 C   0  0
    0.7118    0.0000    3.2384 C   0  0
    2.8437    0.0000    2.0170 C   0  0
    2.8253    0.0000    4.4660 C   0  0
    1.4244    0.0000   -0.4698 C   0  0
    1.4218    0.0000    2.0083 C   0  0
    3.5629    0.0000    0.7865 C   0  0
    1.4278    0.0000    4.4817 C   0  0
    3.5509    0.0000    3.2629 C   0  0
    0.7304    0.0000   -4.1873 C   0  0
    2.8573    0.0000   -5.3767 C   0  0
    0.7141    0.0000   -1.7039 C   0  0
    2.8711    0.0000   -2.9426 C   0  0
    1.4646    0.0000   -5.3828 C   0  0
    1.4386    0.0000   -2.9456 C   0  0
    3.5523    0.0000   -4.1748 C   0  0
    3.5895    0.0000   -1.6788 C   0  0
    5.0056    0.0000   -1.6200 C   0  0
    4.9890    0.0000    0.8093 C   0  0
    4.9814    0.0000    3.2459 C   0  0
    5.6852    0.0000   -0.4196 C   0  0
    5.6726    0.0000    2.0647 C   0  0
    6.7642    0.0000    2.0611 H   0  0
   -1.4244    0.0000   -0.4698 C   0  0
   -1.4218    0.0000    2.0083 C   0  0
   -0.7141    0.0000   -1.7039 C   0  0
   -0.7117    0.0000    0.7631 C   0  0
   -0.7118    0.0000    3.2384 C   0  0
   -1.4646    0.0000   -5.3828 C   0  0
   -1.4386    0.0000   -2.9456 C   0  0
    0.6822    0.0000    5.7083 C   0  0
   -0.7304    0.0000   -4.1873 C   0  0
   -0.6822    0.0000    5.7083 C   0  0
   -3.5629    0.0000    0.7865 C   0  0
   -3.5509    0.0000    3.2629 C   0  0
   -2.8615    0.0000   -0.4605 C   0  0
   -2.8437    0.0000    2.0170 C   0  0
   -2.8253    0.0000    4.4660 C   0  0
   -3.5523    0.0000   -4.1748 C   0  0
   -3.5895    0.0000   -1.6788 C   0  0
   -2.8573    0.0000   -5.3767 C   0  0
   -2.8711    0.0000   -2.9426 C   0  0
   -1.4278    0.0000    4.4817 C   0  0
   -5.6852    0.0000   -0.4196 C   0  0
   -5.6726    0.0000    2.0647 C   0  0
   -4.9890    0.0000    0.8093 C   0  0
   -4.9814    0.0000    3.2459 C   0  0
   -5.0056    0.0000   -1.6200 C   0  0
    5.5112    0.0000    4.2005 H   0  0
    0.9528    0.0000   -6.3434 H   0  0
    3.3684    0.0000    5.4141 H   0  0
   -0.9528    0.0000   -6.3434 H   0  0
   -3.3684    0.0000    5.4141 H   0  0
   -5.5112    0.0000    4.2005 H   0  0
   -6.7642    0.0000    2.0611 H   0  0
   -6.7767    0.0000   -0.4091 H   0  0
   -5.5866    0.0000   -2.5400 H   0  0
   -4.6398    0.0000   -4.2006 H   0  0
    6.7767    0.0000   -0.4091 H   0  0
    5.5866    0.0000   -2.5400 H   0  0
    4.6398    0.0000   -4.2006 H   0  0
    3.4016    0.0000   -6.3221 H   0  0
   -3.4016    0.0000   -6.3221 H   0  0
   -1.2345    0.0000    6.6500 H   0  0
    1.2345    0.0000    6.6500 H   0  0
M  END

> <TOTAL ENERGY>
BIOVIA, TYPE=DOUBLE, VERSION=1                                                  
 -1838.55504732

> <BINDING ENERGY>
BIOVIA, TYPE=DOUBLE, VERSION=1                                                  
   -15.51975771

> <HIRSHFELD CHARGE>
BIOVIA, TYPE=DOUBLE, ATOMISTIC, VERSION=1                                       
  1    -0.00153409
  2    -0.00064109
  3    -0.00023864
  4     0.00004426
  5    -0.04460124
  6    -0.00236933
  7    -0.00097267
  8     0.00125520
  9    -0.00168304
 10    -0.00128293
 11     0.00151133
 12    -0.04310988
 13    -0.00318693
 14     0.00161219
 15    -0.04328143
 16     0.00006553
 17    -0.04357425
 18    -0.00022760
 19    -0.04422051
 20    -0.00054237
 21    -0.04326789
 22    -0.04346501
 23    -0.04347157
 24     0.04613311
 25    -0.00236932
 26    -0.00097265
 27    -0.00318693
 28    -0.00153415
 29    -0.00023865
 30    -0.04328143
 31     0.00006553
 32    -0.04300854
 33     0.00151133
 34    -0.04300854
 35     0.00125520
 36    -0.00128293
 37    -0.00064110
 38     0.00004426
 39    -0.04460124
 40    -0.04357425
 41    -0.00022760
 42    -0.04310988
 43     0.00161219
 44    -0.00168305
 45    -0.04346501
 46    -0.04347156
 47    -0.00054237
 48    -0.04326788
 49    -0.04422050
 50     0.04606906
 51     0.04284005
 52     0.04312795
 53     0.04284005
 54     0.04312795
 55     0.04606906
 56     0.04613311
 57     0.04582316
 58     0.04307328
 59     0.04301872
 60     0.04582316
 61     0.04307328
 62     0.04301872
 63     0.04791237
 64     0.04791237
 65     0.04627801
 66     0.04627801

> <HOMO ENERGY>
BIOVIA, TYPE=DOUBLE, VERSION=1                                                  
    -0.17415896

> <LUMO ENERGY>
BIOVIA, TYPE=DOUBLE, VERSION=1                                                  
    -0.10087657

> <LUMO-HOMO ENERGY>
BIOVIA, TYPE=DOUBLE, VERSION=1                                                  
     0.07328240

> <MULLIKEN CHARGE>
BIOVIA, TYPE=DOUBLE, ATOMISTIC, VERSION=1                                       
  1     0.00640400
  2     0.01624410
  3     0.01860429
  4     0.02346254
  5    -0.16432861
  6     0.00712509
  7     0.02344300
  8     0.03042800
  9     0.07760037
 10     0.07686427
 11     0.06312660
 12    -0.08850223
 13     0.00793118
 14     0.05772781
 15    -0.12773565
 16     0.01047848
 17    -0.13022195
 18     0.04657794
 19    -0.12436811
 20     0.07428914
 21    -0.11652408
 22    -0.12221217
 23    -0.11668951
 24     0.06090680
 25     0.00712510
 26     0.02344301
 27     0.00793118
 28     0.00640397
 29     0.01860430
 30    -0.12773565
 31     0.01047849
 32    -0.11419188
 33     0.06312659
 34    -0.11419188
 35     0.03042799
 36     0.07686428
 37     0.01624410
 38     0.02346254
 39    -0.16432861
 40    -0.13022194
 41     0.04657795
 42    -0.08850223
 43     0.05772781
 44     0.07760038
 45    -0.12221216
 46    -0.11668951
 47     0.07428913
 48    -0.11652408
 49    -0.12436812
 50     0.06090691
 51     0.06502035
 52     0.05609153
 53     0.06502035
 54     0.05609153
 55     0.06090691
 56     0.06090680
 57     0.06163839
 58     0.06667546
 59     0.06497560
 60     0.06163839
 61     0.06667546
 62     0.06497560
 63     0.06696251
 64     0.06696252
 65     0.06128981
 66     0.06128981

> <FUKUI MINUS (MULLIKEN)>
BIOVIA, TYPE=DOUBLE, ATOMISTIC, VERSION=1                                       
  1     0.00816510
  2     0.00667478
  3     0.00922629
  4     0.00944544
  5     0.02468824
  6     0.01074900
  7     0.00912185
  8     0.00648416
  9     0.00461597
 10     0.00410655
 11     0.00798493
 12     0.00999070
 13     0.01181749
 14     0.00545000
 15     0.01458658
 16     0.00564353
 17     0.01485006
 18     0.01483197
 19     0.00936265
 20     0.00704311
 21     0.01338585
 22     0.01618873
 23     0.01320229
 24     0.02974639
 25     0.01074883
 26     0.00912178
 27     0.01181751
 28     0.00816538
 29     0.00922627
 30     0.01458655
 31     0.00564345
 32     0.01231689
 33     0.00798500
 34     0.01231686
 35     0.00648417
 36     0.00410642
 37     0.00667481
 38     0.00944545
 39     0.02468832
 40     0.01485002
 41     0.01483188
 42     0.00999073
 43     0.00545003
 44     0.00461588
 45     0.01618870
 46     0.01320231
 47     0.00704314
 48     0.01338589
 49     0.00936271
 50     0.02905728
 51     0.02404335
 52     0.03059028
 53     0.02404335
 54     0.03059028
 55     0.02905728
 56     0.02974639
 57     0.03003618
 58     0.02370095
 59     0.02361181
 60     0.03003617
 61     0.02370095
 62     0.02361181
 63     0.03030069
 64     0.03030069
 65     0.02898097
 66     0.02898097

> <FUKUI MINUS (HIRSHFELD)>
BIOVIA, TYPE=DOUBLE, ATOMISTIC, VERSION=1                                       
  1     0.00851184
  2     0.00719340
  3     0.00871567
  4     0.00854251
  5     0.03056962
  6     0.01103527
  7     0.00928888
  8     0.00573384
  9     0.01366110
 10     0.01313098
 11     0.01098362
 12     0.02203810
 13     0.01242102
 14     0.00880676
 15     0.02392978
 16     0.00500849
 17     0.02382001
 18     0.01761519
 19     0.01923245
 20     0.01541323
 21     0.02317266
 22     0.02493069
 23     0.02320497
 24     0.01557232
 25     0.01103510
 26     0.00928869
 27     0.01242103
 28     0.00851243
 29     0.00871569
 30     0.02392978
 31     0.00500851
 32     0.02197337
 33     0.01098361
 34     0.02197338
 35     0.00573382
 36     0.01313100
 37     0.00719341
 38     0.00854251
 39     0.03056962
 40     0.02382001
 41     0.01761520
 42     0.02203810
 43     0.00880676
 44     0.01366112
 45     0.02493069
 46     0.02320496
 47     0.01541322
 48     0.02317265
 49     0.01923244
 50     0.01510292
 51     0.01262025
 52     0.01626794
 53     0.01262025
 54     0.01626794
 55     0.01510292
 56     0.01557232
 57     0.01596208
 58     0.01209155
 59     0.01242339
 60     0.01596208
 61     0.01209155
 62     0.01242339
 63     0.01611718
 64     0.01611718
 65     0.01498609
 66     0.01498609

> <FUKUI PLUS (MULLIKEN)>
BIOVIA, TYPE=DOUBLE, ATOMISTIC, VERSION=1                                       
  1     0.00735737
  2     0.00631333
  3     0.00894866
  4     0.00932506
  5     0.02401253
  6     0.01043328
  7     0.01020861
  8     0.00651774
  9     0.00355113
 10     0.00285816
 11     0.00866969
 12     0.00825742
 13     0.01174172
 14     0.00483343
 15     0.01730266
 16     0.00499204
 17     0.01747009
 18     0.01641241
 19     0.00896950
 20     0.00720465
 21     0.01441710
 22     0.01500700
 23     0.01322026
 24     0.02969448
 25     0.01043344
 26     0.01020868
 27     0.01174170
 28     0.00735709
 29     0.00894868
 30     0.01730269
 31     0.00499211
 32     0.01243014
 33     0.00866962
 34     0.01243018
 35     0.00651773
 36     0.00285828
 37     0.00631330
 38     0.00932505
 39     0.02401245
 40     0.01747013
 41     0.01641250
 42     0.00825739
 43     0.00483340
 44     0.00355122
 45     0.01500703
 46     0.01322024
 47     0.00720462
 48     0.01441706
 49     0.00896944
 50     0.02907638
 51     0.02408963
 52     0.03005152
 53     0.02408963
 54     0.03005152
 55     0.02907638
 56     0.02969448
 57     0.02982371
 58     0.02334250
 59     0.02399756
 60     0.02982372
 61     0.02334250
 62     0.02399756
 63     0.03070452
 64     0.03070453
 65     0.02876570
 66     0.02876571

> <FUKUI PLUS (HIRSHFELD)>
BIOVIA, TYPE=DOUBLE, ATOMISTIC, VERSION=1                                       
  1     0.00800533
  2     0.00746317
  3     0.00896146
  4     0.00840163
  5     0.02864710
  6     0.01064767
  7     0.00942868
  8     0.00598537
  9     0.01338669
 10     0.01308595
 11     0.01164365
 12     0.02205990
 13     0.01160645
 14     0.00936549
 15     0.02502560
 16     0.00509184
 17     0.02468418
 18     0.01757565
 19     0.01898820
 20     0.01541113
 21     0.02323640
 22     0.02394541
 23     0.02309503
 24     0.01569353
 25     0.01064785
 26     0.00942887
 27     0.01160644
 28     0.00800474
 29     0.00896144
 30     0.02502560
 31     0.00509183
 32     0.02144617
 33     0.01164366
 34     0.02144616
 35     0.00598539
 36     0.01308593
 37     0.00746316
 38     0.00840162
 39     0.02864710
 40     0.02468418
 41     0.01757564
 42     0.02205990
 43     0.00936549
 44     0.01338668
 45     0.02394541
 46     0.02309503
 47     0.01541114
 48     0.02323640
 49     0.01898821
 50     0.01534262
 51     0.01346164
 52     0.01612082
 53     0.01346164
 54     0.01612082
 55     0.01534262
 56     0.01569353
 57     0.01584808
 58     0.01209336
 59     0.01308403
 60     0.01584808
 61     0.01209336
 62     0.01308403
 63     0.01621900
 64     0.01621899
 65     0.01503890
 66     0.01503890

> <FUKUI ZERO (MULLIKEN)>
BIOVIA, TYPE=DOUBLE, ATOMISTIC, VERSION=1                                       
  1     0.00776123
  2     0.00649406
  3     0.00908747
  4     0.00938525
  5     0.02435039
  6     0.01059114
  7     0.00966523
  8     0.00650095
  9     0.00408355
 10     0.00348235
 11     0.00832731
 12     0.00912406
 13     0.01177961
 14     0.00514171
 15     0.01594462
 16     0.00531778
 17     0.01616007
 18     0.01562219
 19     0.00916607
 20     0.00712388
 21     0.01390147
 22     0.01559787
 23     0.01321127
 24     0.02972044
 25     0.01059114
 26     0.00966523
 27     0.01177961
 28     0.00776123
 29     0.00908747
 30     0.01594462
 31     0.00531778
 32     0.01237352
 33     0.00832731
 34     0.01237352
 35     0.00650095
 36     0.00348235
 37     0.00649406
 38     0.00938525
 39     0.02435039
 40     0.01616007
 41     0.01562219
 42     0.00912406
 43     0.00514171
 44     0.00408355
 45     0.01559787
 46     0.01321127
 47     0.00712388
 48     0.01390147
 49     0.00916607
 50     0.02906683
 51     0.02406649
 52     0.03032090
 53     0.02406649
 54     0.03032090
 55     0.02906683
 56     0.02972044
 57     0.02992994
 58     0.02352173
 59     0.02380468
 60     0.02992994
 61     0.02352173
 62     0.02380468
 63     0.03050261
 64     0.03050261
 65     0.02887334
 66     0.02887334

> <FUKUI ZERO (HIRSHFELD)>
BIOVIA, TYPE=DOUBLE, ATOMISTIC, VERSION=1                                       
  1     0.00825859
  2     0.00732828
  3     0.00883856
  4     0.00847207
  5     0.02960836
  6     0.01084147
  7     0.00935878
  8     0.00585960
  9     0.01352390
 10     0.01310846
 11     0.01131364
 12     0.02204900
 13     0.01201374
 14     0.00908613
 15     0.02447769
 16     0.00505017
 17     0.02425209
 18     0.01759542
 19     0.01911033
 20     0.01541218
 21     0.02320453
 22     0.02443805
 23     0.02315000
 24     0.01563292
 25     0.01084147
 26     0.00935878
 27     0.01201374
 28     0.00825859
 29     0.00883856
 30     0.02447769
 31     0.00505017
 32     0.02170977
 33     0.01131364
 34     0.02170977
 35     0.00585960
 36     0.01310846
 37     0.00732828
 38     0.00847207
 39     0.02960836
 40     0.02425209
 41     0.01759542
 42     0.02204900
 43     0.00908613
 44     0.01352390
 45     0.02443805
 46     0.02315000
 47     0.01541218
 48     0.02320453
 49     0.01911033
 50     0.01522277
 51     0.01304095
 52     0.01619438
 53     0.01304095
 54     0.01619438
 55     0.01522277
 56     0.01563292
 57     0.01590508
 58     0.01209246
 59     0.01275371
 60     0.01590508
 61     0.01209246
 62     0.01275371
 63     0.01616809
 64     0.01616809
 65     0.01501250
 66     0.01501250

> <OPERATION STATUS>
BIOVIA, TYPE=STATUS, VERSION=1                                                  
SUCCESS

$$$$
